2021-12-26T15:16:37,734  INFO Gbl:63 JVM: 15.0.2; Oracle Corporation; mixed mode, sharing; 64-bit
2021-12-26T15:16:37,737  INFO Gbl:67 OS: Windows 10; 10.0; amd64
2021-12-26T15:16:37,738  INFO Gbl:70 CPU cores: 8
2021-12-26T15:16:37,758  INFO Gbl:71 max. Memory: 1024.0MB (1073741824B)
2021-12-26T15:16:37,760  INFO Gbl:109 MATSim-Build: r2e1ebdd9374731ec45d5e5435ee544ef8db1a6ee (2021-04-10 20:07:43)
2021-12-26T15:16:37,775  INFO ControlerListenerManagerImpl:107 calling notifyStartup on org.matsim.guice.DependencyGraphControlerListener
2021-12-26T15:16:37,791  INFO MemoryObserver:41 used RAM: 25 MB  free: 24 MB  total: 50 MB
2021-12-26T15:16:38,031  INFO ControlerListenerManagerImpl:107 calling notifyStartup on org.matsim.counts.CountsControlerListener
2021-12-26T15:16:38,034  INFO ControlerListenerManagerImpl:107 calling notifyStartup on org.matsim.analysis.ModeStatsControlerListener
2021-12-26T15:16:38,034  INFO ControlerListenerManagerImpl:107 calling notifyStartup on org.matsim.analysis.ScoreStatsControlerListener
2021-12-26T15:16:38,038  INFO ControlerListenerManagerImpl:110 all ControlerStartupListeners called.
2021-12-26T15:16:38,039  INFO ControlerUtils:79 config dump before iterations start
2021-12-26T15:16:38,079  INFO ControlerUtils:83 

<?xml version="1.0" encoding="UTF-8"?>
<!DOCTYPE config SYSTEM "http://www.matsim.org/files/dtd/config_v2.dtd">
<config>
	<module name="JDEQSim" >
		<param name="carSize" value="7.5" />
		<param name="endTime" value="undefined" />
		<param name="flowCapacityFactor" value="1.0" />
		<param name="gapTravelSpeed" value="15.0" />
		<param name="minimumInFlowCapacity" value="1800.0" />
		<param name="squeezeTime" value="1800.0" />
		<param name="storageCapacityFactor" value="1.0" />
	</module>
	<module name="TimeAllocationMutator" >
		<!-- Default:true; Defines whether time mutation changes an activity's duration. -->
		<param name="mutationAffectsDuration" value="true" />
		<!-- Default:1800.0; Defines how many seconds a time mutation can maximally shift a time. -->
		<param name="mutationRange" value="1800.0" />
	</module>
	<module name="changeMode" >
		<!-- Defines whether car availability is considered be considered or not. An agent has no car only if it has no license, or never access to a car. Default: true -->
		<param name="ignoreCarAvailability" value="true" />
		<!-- Defines the mode switch behavior. Possible values [fromAllModesToSpecifiedModes, fromSpecifiedModesToSpecifiedModes] Default: fromSpecifiedModesToSpecifiedModes. -->
		<param name="modeSwitchBehavior" value="fromSpecifiedModesToSpecifiedModes" />
		<!-- Defines all the modes available, including chain-based modes, seperated by commas -->
		<param name="modes" value="car,pt" />
	</module>
	<module name="controler" >
		<!-- Compression algorithm to use when writing out data to files. Possible values: [none, gzip, lz4, zst] -->
		<param name="compressionType" value="gzip" />
		<!-- Sets whether graphs showing some analyses should automatically be generated during the simulation. The generation of graphs usually takes a small amount of time that does not have any weight in big simulations, but add a significant overhead in smaller runs or in test cases where the graphical output is not even requested. -->
		<param name="createGraphs" value="true" />
		<!-- true if at the end of a run, plans, network, config etc should be dumped to a file -->
		<param name="dumpDataAtEnd" value="true" />
		<!-- Default=false. If enabled, the router takes travel times needed for turning moves into account. Cannot be used if the (Fast)AStarLandmarks routing or TravelTimeCalculator.separateModes is enabled. -->
		<param name="enableLinkToLinkRouting" value="false" />
		<!-- Default=xml; Specifies the file format for writing events. Currently supported: [xml, pb, json]
		Multiple values can be specified separated by commas (','). -->
		<param name="eventsFileFormat" value="xml" />
		<!-- Default=0. First Iteration of a simulation. -->
		<param name="firstIteration" value="0" />
		<!-- Default=1000. Last Iteration of a simulation. -->
		<param name="lastIteration" value="10" />
		<!-- Defines which mobility simulation will be used. Currently supported: qsim JDEQSim hermes 
		Depending on the chosen mobsim, you'll have to add additional config modules to configure the corresponding mobsim.
		For 'qsim', add a module 'qsim' to the config. -->
		<param name="mobsim" value="qsim" />
		<param name="outputDirectory" value="./output" />
		<!-- Possible values: failIfDirectoryExists, overwriteExistingFiles, deleteDirectoryIfExists -->
		<param name="overwriteFiles" value="deleteDirectoryIfExists" />
		<!-- The type of routing (least cost path) algorithm used, may have the values: [Dijkstra, AStarLandmarks, FastDijkstra, FastAStarLandmarks, SpeedyALT] -->
		<param name="routingAlgorithmType" value="AStarLandmarks" />
		<!-- An identifier for the current run which is used as prefix for output files and mentioned in output xml files etc. -->
		<param name="runId" value="null" />
		<!-- Comma-separated list of visualizer output file formats. `transims', `googleearth', and `otfvis'. -->
		<param name="snapshotFormat" value="" />
		<!-- iterationNumber % writeEventsInterval == 0 defines in which iterations events are written to a file. `0' disables events writing completely. -->
		<param name="writeEventsInterval" value="10" />
		<!-- iterationNumber % writePlansInterval == 0 defines (hopefully) in which iterations plans are written to a file. `0' disables plans writing completely.  Some plans in early iterations are always written -->
		<param name="writePlansInterval" value="10" />
		<!-- iterationNumber % writeSnapshotsInterval == 0 defines in which iterations snapshots are written to a file. `0' disables snapshots writing completely -->
		<param name="writeSnapshotsInterval" value="1" />
		<!-- iterationNumber % writeEventsInterval == 0 defines in which iterations trips CSV are written to a file. `0' disables trips writing completely. -->
		<param name="writeTripsInterval" value="10" />
	</module>
	<module name="counts" >
		<!-- Transport modes that will be respected for the counts comparison. 'car' is default, which includes also bussed from the pt simulation module. Use this parameter in combination with 'filterModes' = true! -->
		<param name="analyzedModes" value="car" />
		<!-- Specifies over how many iterations the link volumes should be averaged that are used for the counts comparison. Use 1 or 0 to only use the link volumes of a single iteration. This values cannot be larger than the value specified for writeCountsInterval -->
		<param name="averageCountsOverIterations" value="5" />
		<!-- factor by which to re-scale the simulated values.  necessary when simulation runs with something different from 100%.  needs to be adapted manually -->
		<param name="countsScaleFactor" value="1.0" />
		<!-- distance to distanceFilterCenterNode to include counting stations. The unit of distance is the Euclidean distance implied by the coordinate system -->
		<param name="distanceFilter" value="null" />
		<!-- node id for center node of distance filter -->
		<param name="distanceFilterCenterNode" value="null" />
		<!-- If true, link counts from legs performed on modes not included in the 'analyzedModes' parameter are ignored. -->
		<param name="filterModes" value="false" />
		<!-- The Coordinates Reference System in which the coordinates are expressed in the input file. At import, the coordinates will be converted to the coordinate system defined in "global", and willbe converted back at export. If not specified, no conversion happens. -->
		<param name="inputCRS" value="null" />
		<!-- input file name to counts package -->
		<param name="inputCountsFile" value="null" />
		<!-- possible values: `html', `kml', `txt', `all' -->
		<param name="outputformat" value="txt" />
		<!-- Specifies how often the counts comparison should be calculated and written. -->
		<param name="writeCountsInterval" value="10" />
	</module>
	<module name="facilities" >
		<!-- This defines how facilities should be created. Possible values: none fromFile setInScenario onePerActivityLinkInPlansFile onePerActivityLinkInPlansFileExceptWhenCoordinatesAreGiven onePerActivityLocationInPlansFile  -->
		<param name="facilitiesSource" value="none" />
		<!-- A prefix to be used for auto-generated IDs. -->
		<param name="idPrefix" value="f_auto_" />
		<!-- The Coordinates Reference System in which the coordinates are expressed in the input file. At import, the coordinates will be converted to the coordinate system defined in "global", and willbe converted back at export. If not specified, no conversion happens. -->
		<param name="inputCRS" value="null" />
		<param name="inputFacilitiesFile" value="null" />
		<param name="inputFacilityAttributesFile" value="null" />
		<param name="insistingOnUsingDeprecatedFacilitiesAttributeFile" value="false" />
	</module>
	<module name="global" >
		<param name="coordinateSystem" value="Atlantis" />
		<param name="defaultDelimiter" value=";" />
		<param name="insistingOnDeprecatedConfigVersion" value="true" />
		<!-- "global" number of threads.  This number is used, e.g., for replanning, but NOT in QSim.  This can typically be set to as many cores as you have available, or possibly even slightly more. -->
		<param name="numberOfThreads" value="2" />
		<param name="randomSeed" value="4711" />
	</module>
	<module name="hermes" >
		<!-- Simulation End Time -->
		<param name="endTime" value="30:00:00" />
		<param name="flowCapacityFactor" value="1.0" />
		<param name="mainMode" value="car" />
		<param name="storageCapacityFactor" value="1.0" />
		<!-- time in seconds.  Time after which the frontmost vehicle on a link is called `stuck' if it does not move. Set to Integer.MAX_VALUE to disable this behavior -->
		<param name="stuckTime" value="10" />
		<!-- treats PT as deterministic. PT vehicles will run with a steady speed. Should be used with separate network layers for PT and other network modes. -->
		<param name="useDeterministicPt" value="false" />
	</module>
	<module name="households" >
		<param name="inputFile" value="null" />
		<param name="inputHouseholdAttributesFile" value="null" />
		<param name="insistingOnUsingDeprecatedHouseholdsAttributeFile" value="false" />
	</module>
	<module name="linkStats" >
		<!-- Specifies over how many iterations the link volumes should be averaged that are used for the link statistics. Use 1 or 0 to only use the link volumes of a single iteration. This values cannot be larger than the value specified for writeLinkStatsInterval -->
		<param name="averageLinkStatsOverIterations" value="5" />
		<!-- Specifies how often the link stats should be calculated and written. Use 0 to disable the generation of link stats. -->
		<param name="writeLinkStatsInterval" value="10" />
	</module>
	<module name="network" >
		<!-- The Coordinates Reference System in which the coordinates are expressed in the input file. At import, the coordinates will be converted to the coordinate system defined in "global", and willbe converted back at export. If not specified, no conversion happens. -->
		<param name="inputCRS" value="null" />
		<param name="inputChangeEventsFile" value="null" />
		<param name="inputNetworkFile" value="network.xml" />
		<param name="laneDefinitionsFile" value="null" />
		<param name="timeVariantNetwork" value="false" />
	</module>
	<module name="parallelEventHandling" >
		<!-- Estimated number of events during mobsim run. An optional optimization hint for the framework. -->
		<param name="estimatedNumberOfEvents" value="null" />
		<!-- Size of the events Queue. Increase for very large scenarios -->
		<param name="eventsQueueSize" value="131072" />
		<!-- Number of threads for parallel events handler. _null_ means the framework decides by itself. 0 is currently not possible. -->
		<param name="numberOfThreads" value="null" />
		<!-- If enabled, each event handler is assigned to its own thread. Note that enabling this feature disabled the numberOfThreads option! This feature is still experimental! -->
		<param name="oneThreadPerHandler" value="false" />
		<!-- If enabled, it is ensured that all events that are created during a time step of the mobility simulation are processed before the next time step is simulated. E.g. neccessary when within-day replanning is used. -->
		<param name="synchronizeOnSimSteps" value="true" />
	</module>
	<module name="planCalcScore" >
		<!-- logit model scale parameter. default: 1.  Has name and default value for historical reasons (see Bryan Raney's phd thesis). -->
		<param name="BrainExpBeta" value="2.0" />
		<param name="PathSizeLogitBeta" value="1.0" />
		<!-- fraction of iterations at which MSA score averaging is started. The matsim theory department suggests to use this together with switching off choice set innovation (where a similar switch exists), but it has not been tested yet. -->
		<param name="fractionOfIterationsToStartScoreMSA" value="null" />
		<!-- new_score = (1-learningRate)*old_score + learningRate * score_from_mobsim.  learning rates close to zero emulate score averaging, but slow down initial convergence -->
		<param name="learningRate" value="1.0" />
		<!-- There used to be a plateau between duration=0 and duration=zeroUtilityDuration. This caused durations to evolve to zero once they were below zeroUtilityDuration, causing problems.  Only use this switch if you need to be backwards compatible with some old results.  (changed nov'13) -->
		<param name="usingOldScoringBelowZeroUtilityDuration" value="false" />
		<!-- write a plans file in each iteration directory which contains what each agent actually did, and the score it received. -->
		<param name="writeExperiencedPlans" value="false" />
		<parameterset type="scoringParameters" >
			<param name="earlyDeparture" value="-0.0" />
			<param name="lateArrival" value="-18.0" />
			<param name="marginalUtilityOfMoney" value="1.0" />
			<param name="performing" value="6.0" />
			<param name="subpopulation" value="null" />
			<param name="utilityOfLineSwitch" value="-1.0" />
			<param name="waiting" value="-0.0" />
			<param name="waitingPt" value="-6.0" />
			<parameterset type="activityParams" >
				<param name="activityType" value="dummy" />
				<param name="closingTime" value="undefined" />
				<param name="earliestEndTime" value="undefined" />
				<param name="latestStartTime" value="undefined" />
				<param name="minimalDuration" value="undefined" />
				<param name="openingTime" value="undefined" />
				<param name="priority" value="1.0" />
				<param name="scoringThisActivityAtAll" value="true" />
				<!-- typical duration of activity.  needs to be defined and non-zero.  in sec. -->
				<param name="typicalDuration" value="02:00:00" />
				<!-- method to compute score at typical duration.  Options: | uniform | relative | Use uniform for backwards compatibility (all activities same score; higher proba to drop long acts). -->
				<param name="typicalDurationScoreComputation" value="relative" />
			</parameterset>
			<parameterset type="activityParams" >
				<param name="activityType" value="car interaction" />
				<param name="closingTime" value="undefined" />
				<param name="earliestEndTime" value="undefined" />
				<param name="latestStartTime" value="undefined" />
				<param name="minimalDuration" value="undefined" />
				<param name="openingTime" value="undefined" />
				<param name="priority" value="1.0" />
				<param name="scoringThisActivityAtAll" value="false" />
				<param name="typicalDuration" value="undefined" />
				<param name="typicalDurationScoreComputation" value="relative" />
			</parameterset>
			<parameterset type="activityParams" >
				<param name="activityType" value="pt interaction" />
				<param name="closingTime" value="undefined" />
				<param name="earliestEndTime" value="undefined" />
				<param name="latestStartTime" value="undefined" />
				<param name="minimalDuration" value="undefined" />
				<param name="openingTime" value="undefined" />
				<param name="priority" value="1.0" />
				<param name="scoringThisActivityAtAll" value="false" />
				<param name="typicalDuration" value="undefined" />
				<param name="typicalDurationScoreComputation" value="relative" />
			</parameterset>
			<parameterset type="activityParams" >
				<param name="activityType" value="bike interaction" />
				<param name="closingTime" value="undefined" />
				<param name="earliestEndTime" value="undefined" />
				<param name="latestStartTime" value="undefined" />
				<param name="minimalDuration" value="undefined" />
				<param name="openingTime" value="undefined" />
				<param name="priority" value="1.0" />
				<param name="scoringThisActivityAtAll" value="false" />
				<param name="typicalDuration" value="undefined" />
				<param name="typicalDurationScoreComputation" value="relative" />
			</parameterset>
			<parameterset type="activityParams" >
				<param name="activityType" value="drt interaction" />
				<param name="closingTime" value="undefined" />
				<param name="earliestEndTime" value="undefined" />
				<param name="latestStartTime" value="undefined" />
				<param name="minimalDuration" value="undefined" />
				<param name="openingTime" value="undefined" />
				<param name="priority" value="1.0" />
				<param name="scoringThisActivityAtAll" value="false" />
				<param name="typicalDuration" value="undefined" />
				<param name="typicalDurationScoreComputation" value="relative" />
			</parameterset>
			<parameterset type="activityParams" >
				<param name="activityType" value="taxi interaction" />
				<param name="closingTime" value="undefined" />
				<param name="earliestEndTime" value="undefined" />
				<param name="latestStartTime" value="undefined" />
				<param name="minimalDuration" value="undefined" />
				<param name="openingTime" value="undefined" />
				<param name="priority" value="1.0" />
				<param name="scoringThisActivityAtAll" value="false" />
				<param name="typicalDuration" value="undefined" />
				<param name="typicalDurationScoreComputation" value="relative" />
			</parameterset>
			<parameterset type="activityParams" >
				<param name="activityType" value="other interaction" />
				<param name="closingTime" value="undefined" />
				<param name="earliestEndTime" value="undefined" />
				<param name="latestStartTime" value="undefined" />
				<param name="minimalDuration" value="undefined" />
				<param name="openingTime" value="undefined" />
				<param name="priority" value="1.0" />
				<param name="scoringThisActivityAtAll" value="false" />
				<param name="typicalDuration" value="undefined" />
				<param name="typicalDurationScoreComputation" value="relative" />
			</parameterset>
			<parameterset type="activityParams" >
				<param name="activityType" value="walk interaction" />
				<param name="closingTime" value="undefined" />
				<param name="earliestEndTime" value="undefined" />
				<param name="latestStartTime" value="undefined" />
				<param name="minimalDuration" value="undefined" />
				<param name="openingTime" value="undefined" />
				<param name="priority" value="1.0" />
				<param name="scoringThisActivityAtAll" value="false" />
				<param name="typicalDuration" value="undefined" />
				<param name="typicalDurationScoreComputation" value="relative" />
			</parameterset>
			<parameterset type="activityParams" >
				<param name="activityType" value="h" />
				<param name="closingTime" value="undefined" />
				<param name="earliestEndTime" value="undefined" />
				<param name="latestStartTime" value="undefined" />
				<param name="minimalDuration" value="undefined" />
				<param name="openingTime" value="undefined" />
				<param name="priority" value="1.0" />
				<param name="scoringThisActivityAtAll" value="true" />
				<param name="typicalDuration" value="12:00:00" />
				<param name="typicalDurationScoreComputation" value="relative" />
			</parameterset>
			<parameterset type="activityParams" >
				<param name="activityType" value="w" />
				<param name="closingTime" value="18:00:00" />
				<param name="earliestEndTime" value="undefined" />
				<param name="latestStartTime" value="09:00:00" />
				<param name="minimalDuration" value="undefined" />
				<param name="openingTime" value="07:00:00" />
				<param name="priority" value="1.0" />
				<param name="scoringThisActivityAtAll" value="true" />
				<param name="typicalDuration" value="08:00:00" />
				<param name="typicalDurationScoreComputation" value="relative" />
			</parameterset>
			<parameterset type="activityParams" >
				<param name="activityType" value="ride interaction" />
				<param name="closingTime" value="undefined" />
				<param name="earliestEndTime" value="undefined" />
				<param name="latestStartTime" value="undefined" />
				<param name="minimalDuration" value="undefined" />
				<param name="openingTime" value="undefined" />
				<param name="priority" value="1.0" />
				<param name="scoringThisActivityAtAll" value="false" />
				<param name="typicalDuration" value="undefined" />
				<param name="typicalDurationScoreComputation" value="relative" />
			</parameterset>
			<parameterset type="modeParams" >
				<!-- [utils] alternative-specific constant.  Normally per trip, but that is probably buggy for multi-leg trips. -->
				<param name="constant" value="0.0" />
				<!-- [money] daily monetary constant. default=0 to be backwards compatible -->
				<param name="dailyMonetaryConstant" value="0.0" />
				<!-- [utils] daily utility constant. default=0 to be backwards compatible -->
				<param name="dailyUtilityConstant" value="0.0" />
				<!-- [utils/m] utility of traveling (e.g. walking or driving) per m, normally negative.  this is on top of the time (dis)utility. -->
				<param name="marginalUtilityOfDistance_util_m" value="0.0" />
				<!-- [utils/hr] additional marginal utility of traveling.  normally negative.  this comes on top of the opportunity cost of time -->
				<param name="marginalUtilityOfTraveling_util_hr" value="-6.0" />
				<param name="mode" value="car" />
				<!-- [unit_of_money/m] conversion of distance into money. Normally negative. -->
				<param name="monetaryDistanceRate" value="0.0" />
			</parameterset>
			<parameterset type="modeParams" >
				<param name="constant" value="0.0" />
				<param name="dailyMonetaryConstant" value="0.0" />
				<param name="dailyUtilityConstant" value="0.0" />
				<param name="marginalUtilityOfDistance_util_m" value="0.0" />
				<param name="marginalUtilityOfTraveling_util_hr" value="-6.0" />
				<param name="mode" value="pt" />
				<param name="monetaryDistanceRate" value="0.0" />
			</parameterset>
			<parameterset type="modeParams" >
				<param name="constant" value="0.0" />
				<param name="dailyMonetaryConstant" value="0.0" />
				<param name="dailyUtilityConstant" value="0.0" />
				<param name="marginalUtilityOfDistance_util_m" value="0.0" />
				<param name="marginalUtilityOfTraveling_util_hr" value="-6.0" />
				<param name="mode" value="walk" />
				<param name="monetaryDistanceRate" value="0.0" />
			</parameterset>
			<parameterset type="modeParams" >
				<param name="constant" value="0.0" />
				<param name="dailyMonetaryConstant" value="0.0" />
				<param name="dailyUtilityConstant" value="0.0" />
				<param name="marginalUtilityOfDistance_util_m" value="0.0" />
				<param name="marginalUtilityOfTraveling_util_hr" value="-6.0" />
				<param name="mode" value="bike" />
				<param name="monetaryDistanceRate" value="0.0" />
			</parameterset>
			<parameterset type="modeParams" >
				<param name="constant" value="0.0" />
				<param name="dailyMonetaryConstant" value="0.0" />
				<param name="dailyUtilityConstant" value="0.0" />
				<param name="marginalUtilityOfDistance_util_m" value="0.0" />
				<param name="marginalUtilityOfTraveling_util_hr" value="-6.0" />
				<param name="mode" value="ride" />
				<param name="monetaryDistanceRate" value="0.0" />
			</parameterset>
			<parameterset type="modeParams" >
				<param name="constant" value="0.0" />
				<param name="dailyMonetaryConstant" value="0.0" />
				<param name="dailyUtilityConstant" value="0.0" />
				<param name="marginalUtilityOfDistance_util_m" value="0.0" />
				<param name="marginalUtilityOfTraveling_util_hr" value="-6.0" />
				<param name="mode" value="other" />
				<param name="monetaryDistanceRate" value="0.0" />
			</parameterset>
		</parameterset>
	</module>
	<module name="plans" >
		<!-- String: minOfDurationAndEndTime tryEndTimeThenDuration endTimeOnly. Anything besides minOfDurationAndEndTime will internally use a different (simpler) version of the TimeAllocationMutator. -->
		<param name="activityDurationInterpretation" value="tryEndTimeThenDuration" />
		<!-- Possible values: reject, useMainModeIdentifier -->
		<param name="handlingOfPlansWithoutRoutingMode" value="reject" />
		<!-- The Coordinates Reference System in which the coordinates are expressed in the input file. At import, the coordinates will be converted to the coordinate system defined in "global", and willbe converted back at export. If not specified, no conversion happens. -->
		<param name="inputCRS" value="null" />
		<param name="inputPersonAttributesFile" value="null" />
		<param name="inputPlansFile" value="plans100.xml" />
		<param name="insistingOnUsingDeprecatedPersonAttributeFile" value="false" />
		<!-- Defines how routes are stored in memory. Currently supported: LinkNetworkRoute, CompressedNetworkRoute. -->
		<param name="networkRouteType" value="LinkNetworkRoute" />
		<!-- (not tested) will remove plan attributes that are presumably not used, such as activityStartTime. default=false. Use with Caution! -->
		<param name="removingUnnecessaryPlanAttributes" value="false" />
	</module>
	<module name="planscalcroute" >
		<!-- Some typical teleportation routing params are set by default, such as for walk and bike.  Setting this switch to "true" will clear them.  Note that this will also clear settings for helper modes such as for non_network_walk -->
		<param name="clearDefaultTeleportedModeParams" value="false" />
		<!-- All the modes for which the router is supposed to generate network routes (like car) -->
		<param name="networkModes" value="car" />
		<!-- strength of the randomness for the utility of money in routing under toll.  Leads to Pareto-optimal route with randomly drawn money-vs-other-attributes tradeoff. Technically the width parameter of a log-normal distribution. 3.0 seems to be a good value.  -->
		<param name="routingRandomness" value="3.0" />
		<parameterset type="teleportedModeParameters" >
			<param name="beelineDistanceFactor" value="1.3" />
			<param name="mode" value="bike" />
			<!-- Free-speed factor for a teleported mode. Travel time = teleportedModeFreespeedFactor * <freespeed car travel time>. Insert a line like this for every such mode. Please do not set teleportedModeFreespeedFactor as well as teleportedModeSpeed for the same mode, but if you do, +teleportedModeFreespeedFactor wins over teleportedModeSpeed. -->
			<param name="teleportedModeFreespeedFactor" value="null" />
			<!-- Speed for a teleported mode. Travel time = (<beeline distance> * beelineDistanceFactor) / teleportedModeSpeed. Insert a line like this for every such mode. -->
			<param name="teleportedModeSpeed" value="4.166666666666667" />
		</parameterset>
		<parameterset type="teleportedModeParameters" >
			<param name="beelineDistanceFactor" value="1.3" />
			<param name="mode" value="walk" />
			<param name="teleportedModeFreespeedFactor" value="null" />
			<param name="teleportedModeSpeed" value="0.8333333333333333" />
		</parameterset>
		<parameterset type="teleportedModeParameters" >
			<param name="beelineDistanceFactor" value="1.3" />
			<param name="mode" value="non_network_walk" />
			<param name="teleportedModeFreespeedFactor" value="null" />
			<param name="teleportedModeSpeed" value="0.8333333333333333" />
		</parameterset>
		<parameterset type="teleportedModeParameters" >
			<param name="beelineDistanceFactor" value="1.3" />
			<param name="mode" value="ride" />
			<param name="teleportedModeFreespeedFactor" value="1.0" />
			<param name="teleportedModeSpeed" value="null" />
		</parameterset>
		<parameterset type="teleportedModeParameters" >
			<param name="beelineDistanceFactor" value="1.3" />
			<param name="mode" value="pt" />
			<param name="teleportedModeFreespeedFactor" value="2.0" />
			<param name="teleportedModeSpeed" value="null" />
		</parameterset>
	</module>
	<module name="ptCounts" >
		<!-- factor by which to re-scale the simulated values.  necessary when simulation runs with something different from 100%.  needs to be adapted manually -->
		<param name="countsScaleFactor" value="1.0" />
		<!-- distance to distanceFilterCenterNode to include counting stations. The unit of distance is the Euclidean distance implied by the coordinate system -->
		<param name="distanceFilter" value="null" />
		<!-- node id for center node of distance filter -->
		<param name="distanceFilterCenterNode" value="null" />
		<!-- input file containing the alighting (getting off) counts for pt -->
		<param name="inputAlightCountsFile" value="null" />
		<!-- input file containing the boarding (getting on) counts for pt -->
		<param name="inputBoardCountsFile" value="null" />
		<!-- input file containing the occupancy counts for pt -->
		<param name="inputOccupancyCountsFile" value="null" />
		<!-- possible values: `html', `kml', `txt', `all' -->
		<param name="outputformat" value="null" />
		<!-- every how many iterations (starting with 0) counts comparisons are generated -->
		<param name="ptCountsInterval" value="10" />
	</module>
	<module name="qsim" >
		<param name="endTime" value="00:00:00" />
		<param name="flowCapacityFactor" value="1.0" />
		<!-- decides if waiting vehicles enter the network after or before the already driving vehicles were moved. Default: false -->
		<param name="insertingWaitingVehiclesBeforeDrivingVehicles" value="true" />
		<!-- If link dynamics is set as SeepageQ, set to false if all seep modes should perform seepage. Default is true (better option). -->
		<param name="isRestrictingSeepage" value="true" />
		<!-- If link dynamics is set as SeepageQ, set to true if seep mode do not consumes any space on the link. Default is false. -->
		<param name="isSeepModeStorageFree" value="false" />
		<!-- default: FIFO; options: FIFO PassingQ SeepageQ -->
		<param name="linkDynamics" value="FIFO" />
		<!-- The (initial) width of the links of the network. Use positive floating point values. This is used only for visualisation. -->
		<param name="linkWidth" value="30.0" />
		<!-- [comma-separated list] Defines which modes are congested modes. Technically, these are the modes that the departure handler of the netsimengine handles.  Effective cell size, effective lane width, flow capacity factor, and storage capacity factor need to be set with diligence.  Need to be vehicular modes to make sense. -->
		<param name="mainMode" value="car" />
		<!-- Shortens a link in the visualization, i.e. its start and end point are moved into towards the center. Does not affect traffic flow.  -->
		<param name="nodeOffset" value="0.0" />
		<!-- Number of threads used for the QSim.  Note that this setting is independent from the "global" threads setting.  In contrast to earlier versions, the non-parallel special version is no longer there. -->
		<param name="numberOfThreads" value="1" />
		<!-- Boolean. `true': stuck vehicles are removed, aborting the plan; `false': stuck vehicles are forced into the next link. `false' is probably the better choice. -->
		<param name="removeStuckVehicles" value="false" />
		<!-- If link dynamics is set as SeepageQ, set a seep mode. Default is bike. -->
		<param name="seepMode" value="bike" />
		<!-- Possible values: minOfEndtimeAndMobsimFinished, onlyUseEndtime -->
		<param name="simEndtimeInterpretation" value="null" />
		<!-- Options: maxOfStarttimeAndEarliestActivityEnd onlyUseStarttime  -->
		<param name="simStarttimeInterpretation" value="maxOfStarttimeAndEarliestActivityEnd" />
		<!-- snapshotStyle. One of: equiDist queue withHoles withHolesAndShowHoles kinematicWaves  -->
		<param name="snapshotStyle" value="equiDist" />
		<param name="snapshotperiod" value="00:00:00" />
		<param name="startTime" value="00:00:00" />
		<param name="storageCapacityFactor" value="1.0" />
		<!-- time in seconds.  Time after which the frontmost vehicle on a link is called `stuck' if it does not move. -->
		<param name="stuckTime" value="10.0" />
		<param name="timeStepSize" value="00:00:01" />
		<!-- options: queue withHoles kinematicWaves  -->
		<param name="trafficDynamics" value="queue" />
		<!-- Set this parameter to true if lanes should be used, false if not. -->
		<param name="useLanes" value="false" />
		<!-- If a route does not reference a vehicle, agents will use the vehicle with the same id as their own. -->
		<param name="usePersonIdForMissingVehicleId" value="true" />
		<!-- If false, the qsim accumulates fractional flows up to one flow unit in every time step.  If true, flows are updated only if an agent wants to enter the link or an agent is added to buffer. Default is true. -->
		<param name="usingFastCapacityUpdate" value="true" />
		<!-- Defines what happens if an agent wants to depart, but the specified vehicle is not available. One of: teleport wait exception  -->
		<param name="vehicleBehavior" value="teleport" />
		<!-- If vehicles should all be the same default vehicle, or come from the vehicles file, or something else.  Possible values:  defaultVehicle modeVehicleTypesFromVehiclesData fromVehiclesData -->
		<param name="vehiclesSource" value="defaultVehicle" />
	</module>
	<module name="strategy" >
		<!-- the external executable will be called with a config file as argument.  This is the pathname to a possible skeleton config, to which additional information will be added.  Can be null. -->
		<param name="ExternalExeConfigTemplate" value="null" />
		<!-- time out value (in seconds) after which matsim will consider the external strategy as failed -->
		<param name="ExternalExeTimeOut" value="3600" />
		<!-- root directory for temporary files generated by the external executable. Provided as a service; I don't think this is used by MATSim. -->
		<param name="ExternalExeTmpFileRootDir" value="null" />
		<!-- fraction of iterations where innovative strategies are switched off.  Something like 0.8 should be good.  E.g. if you run from iteration 400 to iteration 500, innovation is switched off at iteration 480 -->
		<param name="fractionOfIterationsToDisableInnovation" value="Infinity" />
		<!-- maximum number of plans per agent.  ``0'' means ``infinity''.  Currently (2010), ``5'' is a good number -->
		<param name="maxAgentPlanMemorySize" value="5" />
		<!-- strategyName of PlanSelector for plans removal.  Possible defaults: WorstPlanSelector SelectRandom SelectExpBetaForRemoval ChangeExpBetaForRemoval PathSizeLogitSelectorForRemoval . The current default, WorstPlanSelector is not a good choice from a discrete choice theoretical perspective. Alternatives, however, have not been systematically tested. kai, feb'12 -->
		<param name="planSelectorForRemoval" value="WorstPlanSelector" />
		<parameterset type="strategysettings" >
			<!-- iteration after which strategy will be disabled.  most useful for ``innovative'' strategies (new routes, new times, ...). Normally, better use fractionOfIterationsToDisableInnovation -->
			<param name="disableAfterIteration" value="-1" />
			<!-- path to external executable (if applicable) -->
			<param name="executionPath" value="null" />
			<!-- strategyName of strategy.  Possible default names: SelectRandom BestScore KeepLastSelected ChangeExpBeta SelectExpBeta SelectPathSizeLogit      (selectors), ReRouteTimeAllocationMutatorTimeAllocationMutator_ReRouteChangeSingleTripModeChangeTripModeSubtourModeChoice (innovative strategies). -->
			<param name="strategyName" value="BestScore" />
			<!-- subpopulation to which the strategy applies. "null" refers to the default population, that is, the set of persons for which no explicit subpopulation is defined (ie no subpopulation attribute) -->
			<param name="subpopulation" value="null" />
			<!-- weight of a strategy: for each agent, a strategy will be selected with a probability proportional to its weight -->
			<param name="weight" value="0.9" />
		</parameterset>
		<parameterset type="strategysettings" >
			<param name="disableAfterIteration" value="-1" />
			<param name="executionPath" value="null" />
			<param name="strategyName" value="ReRoute" />
			<param name="subpopulation" value="null" />
			<param name="weight" value="0.1" />
		</parameterset>
	</module>
	<module name="subtourModeChoice" >
		<!-- Only for backwards compatibility.  Defines if only trips from modes list should change mode, or all trips.  Options: fromAllModesToSpecifiedModes fromSpecifiedModesToSpecifiedModes  -->
		<param name="behavior" value="fromSpecifiedModesToSpecifiedModes" />
		<!-- Defines the chain-based modes, seperated by commas -->
		<param name="chainBasedModes" value="car,bike" />
		<!-- Defines whether car availability must be considered or not. A agent has no car only if it has no license, or never access to a car -->
		<param name="considerCarAvailability" value="false" />
		<!-- Defines all the modes available, including chain-based modes, seperated by commas -->
		<param name="modes" value="car,pt,bike,walk" />
	</module>
	<module name="transit" >
		<!-- The Coordinates Reference System in which the coordinates are expressed in the input file. At import, the coordinates will be converted to the coordinate system defined in "global", and willbe converted back at export. If not specified, no conversion happens. -->
		<param name="inputScheduleCRS" value="null" />
		<param name="insistingOnUsingDeprecatedAttributeFiles" value="false" />
		<!-- The type of transit routing algorithm used, may have the values: [DijkstraBased, SwissRailRaptor] -->
		<param name="routingAlgorithmType" value="SwissRailRaptor" />
		<!-- Optional input file containing additional attributes for transit lines, stored as ObjectAttributes. -->
		<param name="transitLinesAttributesFile" value="null" />
		<!-- Comma-separated list of transportation modes that are handled as transit. Defaults to 'pt'. -->
		<param name="transitModes" value="pt" />
		<!-- Input file containing the transit schedule to be simulated. -->
		<param name="transitScheduleFile" value="null" />
		<!-- Optional input file containing additional attributes for transit stop facilities, stored as ObjectAttributes. -->
		<param name="transitStopsAttributesFile" value="null" />
		<!-- Set this parameter to true if transit should be simulated, false if not. -->
		<param name="useTransit" value="false" />
		<param name="usingTransitInMobsim" value="true" />
		<!-- Input file containing the vehicles used by the departures in the transit schedule. -->
		<param name="vehiclesFile" value="null" />
	</module>
	<module name="transitRouter" >
		<!-- additional time the router allocates when a line switch happens. Can be interpreted as a 'safety' time that agents need to safely transfer from one line to another -->
		<param name="additionalTransferTime" value="0.0" />
		<!-- Factor with which direct walk generalized cost is multiplied before it is compared to the pt generalized cost.  Set to a very high value to reduce direct walk results. -->
		<param name="directWalkFactor" value="1.0" />
		<!-- step size to increase searchRadius if no stops are found -->
		<param name="extensionRadius" value="200.0" />
		<!-- maximum beeline distance between stops that agents could transfer to by walking -->
		<param name="maxBeelineWalkConnectionDistance" value="100.0" />
		<!-- the radius in which stop locations are searched, given a start or target coordinate -->
		<param name="searchRadius" value="1000.0" />
	</module>
	<module name="travelTimeCalculator" >
		<!-- (only for backwards compatibility; only used if separateModes==false && + filterModes==true)  Transport modes that will be respected by the travel time collector. 'car' is default which includes also buses from the pt simulation module. -->
		<param name="analyzedModes" value="car" />
		<param name="calculateLinkToLinkTravelTimes" value="false" />
		<param name="calculateLinkTravelTimes" value="true" />
		<!-- (only for backwards compatiblity; only used if separateModes==false)  Only modes included in analyzedModes are included. -->
		<param name="filterModes" value="false" />
		<!-- The lenght (in sec) of the time period that is splited into time bins; an additional time bin is created to aggregate all travel times collected after maxTime -->
		<param name="maxTime" value="108000" />
		<!-- (only for backwards compatibility) If false, link travel times are measured and aggregated over all vehicles using the link. -->
		<param name="separateModes" value="true" />
		<!-- How to deal with congested time bins that have no link entry events. `optimistic' assumes free speed (too optimistic); 'experimental_LastMile' is experimental and probably too pessimistic. -->
		<param name="travelTimeAggregator" value="optimistic" />
		<!-- The size of the time bin (in sec) into which the link travel times are aggregated for the router -->
		<param name="travelTimeBinSize" value="900" />
		<!-- possible values: TravelTimeCalculatorArray TravelTimeCalculatorHashMap  -->
		<param name="travelTimeCalculator" value="TravelTimeCalculatorArray" />
		<!-- How to deal with link entry times at different positions during the time bin. Currently supported: average, linearinterpolation -->
		<param name="travelTimeGetter" value="average" />
	</module>
	<module name="vehicles" >
		<param name="vehiclesFile" value="null" />
	</module>
	<module name="vspExperimental" >
		<!-- (do not use except of you have to) There was a problem with pt interaction scoring.  Some people solved it by overwriting the parameters of the pt interaction activity type.  Doing this now throws an Exception.  If you still insist on doing this, set the following to true. -->
		<param name="isAbleToOverwritePtInteractionParams" value="false" />
		<param name="isGeneratingBoardingDeniedEvent" value="false" />
		<!-- if an approximation of the opportunity cost of time is included into the radius calculation for location choice.`true' will be faster, but it is an approximation.  Default is `true'; `false' is available for backwards compatibility. -->
		<param name="isUsingOpportunityCostOfTimeForLocationChoice" value="true" />
		<param name="logitScaleParamForPlansRemoval" value="1.0" />
		<!-- Options: | ignore | info | warn | abort | .  When violating VSP defaults, this results in nothing, logfile infos, logfile warnings, or aborts.  Members of VSP should use `abort' or talk to kai. -->
		<param name="vspDefaultsCheckingLevel" value="ignore" />
		<!-- if true then writes output_events in output directory.  default is `false'. Will only work when lastIteration is multiple of events writing interval -->
		<param name="writingOutputEvents" value="true" />
	</module>

</config>

2021-12-26T15:16:38,150  INFO ControlerUtils:84 Complete config dump done.
2021-12-26T15:16:38,151  INFO ControlerUtils:85 Checking consistency of config...
2021-12-26T15:16:38,151  INFO VspConfigConsistencyCheckerImpl:59 NOT running vsp config consistency check because vsp defaults checking level is set to IGNORE
2021-12-26T15:16:38,162  INFO ControlerUtils:87 Checking consistency of config done.
2021-12-26T15:16:38,168  WARN PrepareForSimImpl:222 'usePersonIdForMissingVehicleId' is deprecated. It will be removed soon.
2021-12-26T15:16:38,178  INFO Counter:69 [VehiclesImpl] added vehicle # 1
2021-12-26T15:16:38,179  INFO Counter:69 [VehiclesImpl] added vehicle # 2
2021-12-26T15:16:38,179  INFO Counter:69 [VehiclesImpl] added vehicle # 4
2021-12-26T15:16:38,180  INFO Counter:69 [VehiclesImpl] added vehicle # 8
2021-12-26T15:16:38,180  INFO Counter:69 [VehiclesImpl] added vehicle # 16
2021-12-26T15:16:38,181  INFO Counter:69 [VehiclesImpl] added vehicle # 32
2021-12-26T15:16:38,184  INFO Counter:69 [VehiclesImpl] added vehicle # 64
2021-12-26T15:16:38,214  INFO PreProcessDijkstra:118 nodes in dead ends: 0 (total nodes: 15). Done in 1 ms
2021-12-26T15:16:38,215  WARN PreProcessEuclidean:59 There are links with stored length smaller than their Euclidean distance in this network. Thus, A* cannot guarantee to calculate the least-cost paths between two nodes.
2021-12-26T15:16:38,215  INFO PreProcessLandmarks:112 Putting landmarks on network...
2021-12-26T15:16:38,218  INFO LandmarkerPieSlices:96 Filling sectors...
2021-12-26T15:16:38,221  INFO LandmarkerPieSlices:163 There is no node in sector 0!
2021-12-26T15:16:38,221  INFO LandmarkerPieSlices:163 There is no node in sector 1!
2021-12-26T15:16:38,222  INFO LandmarkerPieSlices:163 There is no node in sector 2!
2021-12-26T15:16:38,223  INFO LandmarkerPieSlices:163 There is no node in sector 3!
2021-12-26T15:16:38,223  INFO LandmarkerPieSlices:163 There is no node in sector 4!
2021-12-26T15:16:38,224  INFO LandmarkerPieSlices:163 There is no node in sector 5!
2021-12-26T15:16:38,225  INFO LandmarkerPieSlices:163 There is no node in sector 6!
2021-12-26T15:16:38,225  INFO LandmarkerPieSlices:163 There is no node in sector 7!
2021-12-26T15:16:38,225  INFO LandmarkerPieSlices:163 There is no node in sector 8!
2021-12-26T15:16:38,225  INFO LandmarkerPieSlices:163 There is no node in sector 9!
2021-12-26T15:16:38,226  INFO LandmarkerPieSlices:163 There is no node in sector 10!
2021-12-26T15:16:38,226  INFO LandmarkerPieSlices:163 There is no node in sector 11!
2021-12-26T15:16:38,226  INFO LandmarkerPieSlices:163 There is no node in sector 12!
2021-12-26T15:16:38,226  INFO LandmarkerPieSlices:163 There is no node in sector 13!
2021-12-26T15:16:38,226  INFO LandmarkerPieSlices:163 There is no node in sector 14!
2021-12-26T15:16:38,232  INFO LandmarkerPieSlices:100 Reducing number of landmarks from 16 to 1...
2021-12-26T15:16:38,234  INFO LandmarkerPieSlices:107 Refining landmarks...
2021-12-26T15:16:38,235  INFO LandmarkerPieSlices:109 done
2021-12-26T15:16:38,236  INFO PreProcessLandmarks:115 done in 20 ms
2021-12-26T15:16:38,236  INFO PreProcessLandmarks:117 Initializing landmarks data
2021-12-26T15:16:38,237  INFO PreProcessLandmarks:129 Calculating distance from each node to each of the 16 landmarks using 2 threads...
2021-12-26T15:16:38,239  INFO PreProcessLandmarks:139 wait for landmarks Calculator to finish...
2021-12-26T15:16:38,241  INFO PreProcessLandmarks:163 done in 4 ms
2021-12-26T15:16:38,252  INFO NetworkImpl:163  node # 1
2021-12-26T15:16:38,252  INFO NetworkImpl:163  node # 4
2021-12-26T15:16:38,255  INFO NetworkImpl:159  link # 1
2021-12-26T15:16:38,255  INFO NetworkImpl:159  link # 4
2021-12-26T15:16:38,257  INFO NetworkImpl:159  link # 16
2021-12-26T15:16:38,258  WARN RandomizingTimeDistanceTravelDisutilityFactory:112 There will be no routing randomness. The randomization of the travel disutility requires the monetary distance rate to be different than zero. Continuing anyway.
2021-12-26T15:16:38,259  WARN RandomizingTimeDistanceTravelDisutilityFactory:117 There will be no routing randomness. The randomization of the travel disutility requires the travel time cost rate to be different than zero. Continuing anyway.
2021-12-26T15:16:38,263  INFO RandomizingTimeDistanceTravelDisutilityFactory:85  sigma: 3.0; resulting normalization: 0.011108996538242306
2021-12-26T15:16:38,268  INFO PreProcessDijkstra:118 nodes in dead ends: 0 (total nodes: 15). Done in 3 ms
2021-12-26T15:16:38,270  WARN PreProcessEuclidean:59 There are links with stored length smaller than their Euclidean distance in this network. Thus, A* cannot guarantee to calculate the least-cost paths between two nodes.
2021-12-26T15:16:38,270  INFO PreProcessLandmarks:112 Putting landmarks on network...
2021-12-26T15:16:38,270  INFO LandmarkerPieSlices:96 Filling sectors...
2021-12-26T15:16:38,271  INFO LandmarkerPieSlices:163 There is no node in sector 0!
2021-12-26T15:16:38,272  INFO LandmarkerPieSlices:163 There is no node in sector 1!
2021-12-26T15:16:38,274  INFO LandmarkerPieSlices:163 There is no node in sector 2!
2021-12-26T15:16:38,274  INFO LandmarkerPieSlices:163 There is no node in sector 3!
2021-12-26T15:16:38,274  INFO LandmarkerPieSlices:163 There is no node in sector 4!
2021-12-26T15:16:38,276  INFO LandmarkerPieSlices:163 There is no node in sector 5!
2021-12-26T15:16:38,277  INFO LandmarkerPieSlices:163 There is no node in sector 6!
2021-12-26T15:16:38,278  INFO LandmarkerPieSlices:163 There is no node in sector 7!
2021-12-26T15:16:38,278  INFO LandmarkerPieSlices:163 There is no node in sector 8!
2021-12-26T15:16:38,281  INFO LandmarkerPieSlices:163 There is no node in sector 9!
2021-12-26T15:16:38,282  INFO LandmarkerPieSlices:163 There is no node in sector 10!
2021-12-26T15:16:38,283  INFO LandmarkerPieSlices:163 There is no node in sector 11!
2021-12-26T15:16:38,284  INFO LandmarkerPieSlices:163 There is no node in sector 12!
2021-12-26T15:16:38,286  INFO LandmarkerPieSlices:163 There is no node in sector 13!
2021-12-26T15:16:38,287  INFO LandmarkerPieSlices:163 There is no node in sector 14!
2021-12-26T15:16:38,287  INFO LandmarkerPieSlices:100 Reducing number of landmarks from 16 to 1...
2021-12-26T15:16:38,287  INFO LandmarkerPieSlices:107 Refining landmarks...
2021-12-26T15:16:38,288  INFO LandmarkerPieSlices:109 done
2021-12-26T15:16:38,288  INFO PreProcessLandmarks:115 done in 18 ms
2021-12-26T15:16:38,288  INFO PreProcessLandmarks:117 Initializing landmarks data
2021-12-26T15:16:38,288  INFO PreProcessLandmarks:129 Calculating distance from each node to each of the 16 landmarks using 2 threads...
2021-12-26T15:16:38,289  INFO PreProcessLandmarks:139 wait for landmarks Calculator to finish...
2021-12-26T15:16:38,290  INFO PreProcessLandmarks:163 done in 2 ms
2021-12-26T15:16:38,294  INFO RandomizingTimeDistanceTravelDisutilityFactory:85  sigma: 3.0; resulting normalization: 0.011108996538242306
2021-12-26T15:16:38,296  INFO Counter:69 [PersonPrepareForSim] handled person # 1
2021-12-26T15:16:38,296  INFO Counter:69 [PersonPrepareForSim] handled person # 2
2021-12-26T15:16:38,298  INFO Counter:69 [PersonPrepareForSim] handled person # 4
2021-12-26T15:16:38,298  INFO Counter:69 [PersonPrepareForSim] handled person # 8
2021-12-26T15:16:38,298  INFO Counter:69 [PersonPrepareForSim] handled person # 16
2021-12-26T15:16:38,300  INFO Counter:69 [PersonPrepareForSim] handled person # 32
2021-12-26T15:16:38,302  INFO Counter:69 [PersonPrepareForSim] handled person # 64
2021-12-26T15:16:38,306  INFO Counter:74 [PersonPrepareForSim] handled person # 100
2021-12-26T15:16:38,307  INFO AbstractController:133 ###################################################
2021-12-26T15:16:38,309  INFO AbstractController:134 ### ITERATION 0 BEGINS
2021-12-26T15:16:38,312  INFO ControlerListenerManagerImpl:145 calling notifyIterationStarts on org.matsim.analysis.LegHistogramListener
2021-12-26T15:16:38,313  INFO ControlerListenerManagerImpl:145 calling notifyIterationStarts on org.matsim.analysis.LinkStatsControlerListener
2021-12-26T15:16:38,314  INFO ControlerListenerManagerImpl:145 calling notifyIterationStarts on org.matsim.core.replanning.ReplanningContextImpl
2021-12-26T15:16:38,314  INFO ControlerListenerManagerImpl:145 calling notifyIterationStarts on org.matsim.core.scoring.ScoringFunctionsForPopulation$1
2021-12-26T15:16:38,338  INFO ControlerListenerManagerImpl:145 calling notifyIterationStarts on org.matsim.core.scoring.ExperiencedPlansServiceImpl$1
2021-12-26T15:16:38,339  INFO ControlerListenerManagerImpl:148 [it.0] all ControlerIterationStartsListeners called.
2021-12-26T15:16:38,341  INFO ControlerListenerManagerImpl:224 calling notifyBeforeMobsim on org.matsim.core.controler.corelisteners.EventsHandlingImpl
2021-12-26T15:16:38,342  INFO EventsManagerImpl:190 resetting Event-Handlers
2021-12-26T15:16:38,342  INFO EventsManagerImpl:197   org.matsim.core.trafficmonitoring.TravelTimeCalculator
2021-12-26T15:16:38,342  INFO EventsManagerImpl:197   org.matsim.core.scoring.EventsToLegsAndActivities
2021-12-26T15:16:38,342  INFO EventsManagerImpl:197   org.matsim.analysis.VolumesAnalyzer
2021-12-26T15:16:38,342  INFO EventsManagerImpl:197   org.matsim.core.scoring.ScoringFunctionsForPopulation
2021-12-26T15:16:38,342  INFO EventsManagerImpl:197   org.matsim.analysis.LegHistogram
2021-12-26T15:16:38,342  INFO EventsManagerImpl:197   org.matsim.analysis.CalcLegTimes
2021-12-26T15:16:38,349  INFO EventsManagerImpl:160 adding Event-Handler: org.matsim.core.events.algorithms.EventWriterXML
2021-12-26T15:16:38,350  INFO EventsManagerImpl:166   org.matsim.core.events.algorithms.EventWriter
2021-12-26T15:16:38,350  INFO EventsManagerImpl:166   org.matsim.core.events.handler.BasicEventHandler
2021-12-26T15:16:38,350  INFO EventsManagerImpl:227     > org.matsim.api.core.v01.events.Event
2021-12-26T15:16:38,350  INFO EventsManagerImpl:176 
2021-12-26T15:16:38,351  INFO EventsManagerImpl:160 adding Event-Handler: org.matsim.core.events.algorithms.EventWriterXML
2021-12-26T15:16:38,351  INFO EventsManagerImpl:166   org.matsim.core.events.algorithms.EventWriter
2021-12-26T15:16:38,351  INFO EventsManagerImpl:166   org.matsim.core.events.handler.BasicEventHandler
2021-12-26T15:16:38,351  INFO EventsManagerImpl:227     > org.matsim.api.core.v01.events.Event
2021-12-26T15:16:38,351  INFO EventsManagerImpl:176 
2021-12-26T15:16:38,351  INFO ControlerListenerManagerImpl:224 calling notifyBeforeMobsim on org.matsim.core.controler.corelisteners.PlansDumpingImpl
2021-12-26T15:16:38,351  INFO PlansDumpingImpl:76 dumping plans...
2021-12-26T15:16:38,650  INFO Counter:69 [PopulationWriter] dumped person # 1
2021-12-26T15:16:38,651  INFO Counter:69 [PopulationWriter] dumped person # 2
2021-12-26T15:16:38,653  INFO Counter:69 [PopulationWriter] dumped person # 4
2021-12-26T15:16:38,655  INFO Counter:69 [PopulationWriter] dumped person # 8
2021-12-26T15:16:38,659  INFO Counter:69 [PopulationWriter] dumped person # 16
2021-12-26T15:16:38,671  INFO Counter:69 [PopulationWriter] dumped person # 32
2021-12-26T15:16:38,688  INFO Counter:69 [PopulationWriter] dumped person # 64
2021-12-26T15:16:38,698  INFO PopulationWriter:144 Population written to: ./output/ITERS/it.0/0.plans.xml.gz
2021-12-26T15:16:38,700  INFO Counter:74 [PopulationWriter] dumped person # 100
2021-12-26T15:16:38,700  INFO PlansDumpingImpl:93 finished plans dump.
2021-12-26T15:16:38,701  INFO ControlerListenerManagerImpl:229 calling notifyBeforeMobsim on org.matsim.core.population.VspPlansCleaner
2021-12-26T15:16:38,702  INFO ControlerListenerManagerImpl:232 [it.0] all ControlerBeforeMobsimListeners called.
2021-12-26T15:16:38,704  INFO RandomizingTimeDistanceTravelDisutilityFactory:85  sigma: 3.0; resulting normalization: 0.011108996538242306
2021-12-26T15:16:38,705  INFO RandomizingTimeDistanceTravelDisutilityFactory:85  sigma: 3.0; resulting normalization: 0.011108996538242306
2021-12-26T15:16:38,707  INFO Counter:69 [PersonPrepareForSim] handled person # 2
2021-12-26T15:16:38,706  INFO Counter:69 [PersonPrepareForSim] handled person # 1
2021-12-26T15:16:38,708  INFO Counter:69 [PersonPrepareForSim] handled person # 4
2021-12-26T15:16:38,708  INFO Counter:69 [PersonPrepareForSim] handled person # 8
2021-12-26T15:16:38,708  INFO Counter:69 [PersonPrepareForSim] handled person # 16
2021-12-26T15:16:38,709  INFO Counter:69 [PersonPrepareForSim] handled person # 32
2021-12-26T15:16:38,709  INFO Counter:69 [PersonPrepareForSim] handled person # 64
2021-12-26T15:16:38,710  INFO Counter:74 [PersonPrepareForSim] handled person # 100
2021-12-26T15:16:38,900  INFO MobsimListenerManager:49 calling addQueueSimulationListener
2021-12-26T15:16:38,901  INFO MobsimListenerManager:53   assigned class org.matsim.core.mobsim.framework.listeners.MobsimListener to interface org.matsim.core.mobsim.framework.listeners.MobsimListener
2021-12-26T15:16:38,901  INFO MobsimListenerManager:53   assigned class org.matsim.core.mobsim.framework.listeners.MobsimListener to interface org.matsim.core.mobsim.framework.listeners.MobsimInitializedListener
2021-12-26T15:16:38,902  INFO MobsimListenerManager:53   assigned class org.matsim.core.mobsim.framework.listeners.MobsimListener to interface org.matsim.vis.snapshotwriters.SnapshotWriterManager
2021-12-26T15:16:38,902  INFO MobsimListenerManager:53   assigned class org.matsim.core.mobsim.framework.listeners.MobsimListener to interface org.matsim.core.mobsim.framework.listeners.MobsimAfterSimStepListener
2021-12-26T15:16:38,903  INFO MobsimListenerManager:53   assigned class org.matsim.core.mobsim.framework.listeners.MobsimListener to interface org.matsim.core.mobsim.framework.listeners.MobsimBeforeCleanupListener
2021-12-26T15:16:38,938  WARN QueueWithBuffer:494 Link 1 too small: enlarge storage capacity from: 1333.3333333333333 Vehicles to: 3599.712023038157 Vehicles.  This is not fatal, but modifies the traffic flow dynamics.
2021-12-26T15:16:38,942  WARN QueueWithBuffer:494 Link 20 too small: enlarge storage capacity from: 1333.3333333333333 Vehicles to: 3599.712023038157 Vehicles.  This is not fatal, but modifies the traffic flow dynamics.
2021-12-26T15:16:38,942  WARN QueueWithBuffer:494 Link 21 too small: enlarge storage capacity from: 1333.3333333333333 Vehicles to: 3599.712023038157 Vehicles.  This is not fatal, but modifies the traffic flow dynamics.
2021-12-26T15:16:38,945  WARN QueueWithBuffer:494 Link 22 too small: enlarge storage capacity from: 4666.666666666667 Vehicles to: 12598.99208063355 Vehicles.  This is not fatal, but modifies the traffic flow dynamics.
2021-12-26T15:16:38,945  WARN QueueWithBuffer:494 Link 23 too small: enlarge storage capacity from: 1333.3333333333333 Vehicles to: 3599.712023038157 Vehicles.  This is not fatal, but modifies the traffic flow dynamics.
2021-12-26T15:16:38,964  INFO QSimProvider:115 Added MobsimEngine class org.matsim.core.mobsim.qsim.ActivityEngineDefaultImpl
2021-12-26T15:16:38,964  INFO QSimProvider:121 Added Activityhandler class org.matsim.core.mobsim.qsim.ActivityEngineDefaultImpl
2021-12-26T15:16:38,965  INFO QSimProvider:127 Added DepartureHandler class org.matsim.core.mobsim.qsim.qnetsimengine.VehicularDepartureHandler
2021-12-26T15:16:38,965  INFO QSimProvider:115 Added MobsimEngine class org.matsim.core.mobsim.qsim.qnetsimengine.QNetsimEngineWithThreadpool
2021-12-26T15:16:38,965  INFO QSimProvider:115 Added MobsimEngine class org.matsim.core.mobsim.qsim.DefaultTeleportationEngine
2021-12-26T15:16:38,968  INFO QSimProvider:127 Added DepartureHandler class org.matsim.core.mobsim.qsim.DefaultTeleportationEngine
2021-12-26T15:16:38,969  INFO QSimProvider:133 Added AgentSource class org.matsim.core.mobsim.qsim.agents.PopulationAgentSource
2021-12-26T15:16:38,970  INFO MobsimListenerManager:49 calling addQueueSimulationListener
2021-12-26T15:16:38,972  INFO MobsimListenerManager:53   assigned class org.matsim.core.mobsim.framework.listeners.MobsimListener to interface org.matsim.core.mobsim.qsim.messagequeueengine.MessageQueueEngine
2021-12-26T15:16:38,973  INFO MobsimListenerManager:53   assigned class org.matsim.core.mobsim.framework.listeners.MobsimListener to interface org.matsim.core.mobsim.framework.listeners.MobsimListener
2021-12-26T15:16:38,973  INFO MobsimListenerManager:53   assigned class org.matsim.core.mobsim.framework.listeners.MobsimListener to interface org.matsim.core.mobsim.framework.listeners.MobsimBeforeSimStepListener
2021-12-26T15:16:38,973  INFO QSimProvider:139 Added MobsimListener class org.matsim.core.mobsim.qsim.messagequeueengine.MessageQueueEngine
2021-12-26T15:16:38,997  INFO PopulationUtils:1194 adding scenario element for allpersons container
2021-12-26T15:16:38,997  INFO PopulationImpl:105  person # 1
2021-12-26T15:16:38,998  INFO PopulationImpl:105  person # 4
2021-12-26T15:16:39,003  INFO PopulationImpl:105  person # 16
2021-12-26T15:16:39,007  INFO PopulationImpl:105  person # 64
2021-12-26T15:16:39,010  INFO VehicleUtils:324 adding scenario element for allvehicles container
2021-12-26T15:16:39,011  INFO Counter:69 [VehiclesImpl] added vehicle # 1
2021-12-26T15:16:39,012  INFO Counter:69 [VehiclesImpl] added vehicle # 2
2021-12-26T15:16:39,014  INFO Counter:69 [VehiclesImpl] added vehicle # 4
2021-12-26T15:16:39,014  INFO Counter:69 [VehiclesImpl] added vehicle # 8
2021-12-26T15:16:39,015  INFO Counter:69 [VehiclesImpl] added vehicle # 16
2021-12-26T15:16:39,019  INFO Counter:69 [VehiclesImpl] added vehicle # 32
2021-12-26T15:16:39,022  INFO Counter:69 [VehiclesImpl] added vehicle # 64
2021-12-26T15:16:39,044  INFO AbstractQNetsimEngine:427 Assigned 15 nodes and 23 links to QSimEngineRunner #0
2021-12-26T15:16:39,055  INFO EventsManagerImpl:137  event # 1
2021-12-26T15:16:39,072  INFO EventsManagerImpl:137  event # 4
2021-12-26T15:16:39,085  INFO AbstractQNetsimEngine:365 SIMULATION (QNetsimEngine) AT 05:58:30 : #links=0 #nodes=1
2021-12-26T15:16:39,108  INFO QSim:542 SIMULATION (NEW QSim) AT 05:58:30 : #Veh=100 lost=0 simT=0.0s realT=0s; (s/r): 0.0
2021-12-26T15:16:39,129  INFO EventsManagerImpl:137  event # 16
2021-12-26T15:16:39,145  INFO EventsManagerImpl:137  event # 64
2021-12-26T15:16:39,148  INFO AbstractQNetsimEngine:365 SIMULATION (QNetsimEngine) AT 06:00:00 : #links=2 #nodes=1
2021-12-26T15:16:39,149  INFO QSim:542 SIMULATION (NEW QSim) AT 06:00:00 : #Veh=100 lost=0 simT=90.0s realT=0s; (s/r): Infinity
2021-12-26T15:16:39,164  INFO EventsManagerImpl:137  event # 256
2021-12-26T15:16:39,393  INFO EventsManagerImpl:137  event # 1024
2021-12-26T15:16:39,741  INFO AbstractQNetsimEngine:365 SIMULATION (QNetsimEngine) AT 07:00:00 : #links=1 #nodes=0
2021-12-26T15:16:39,742  INFO QSim:542 SIMULATION (NEW QSim) AT 07:00:00 : #Veh=100 lost=0 simT=3690.0s realT=0s; (s/r): Infinity
2021-12-26T15:16:40,172  INFO AbstractQNetsimEngine:365 SIMULATION (QNetsimEngine) AT 08:00:00 : #links=1 #nodes=0
2021-12-26T15:16:40,172  INFO QSim:542 SIMULATION (NEW QSim) AT 08:00:00 : #Veh=5 lost=0 simT=7290.0s realT=1s; (s/r): 7290.0
2021-12-26T15:16:40,528  INFO AbstractQNetsimEngine:365 SIMULATION (QNetsimEngine) AT 09:00:00 : #links=1 #nodes=0
2021-12-26T15:16:40,528  INFO QSim:542 SIMULATION (NEW QSim) AT 09:00:00 : #Veh=4 lost=0 simT=10890.0s realT=1s; (s/r): 10890.0
2021-12-26T15:16:40,819  INFO AbstractQNetsimEngine:365 SIMULATION (QNetsimEngine) AT 10:00:00 : #links=0 #nodes=0
2021-12-26T15:16:40,819  INFO QSim:542 SIMULATION (NEW QSim) AT 10:00:00 : #Veh=2 lost=0 simT=14490.0s realT=1s; (s/r): 14490.0
2021-12-26T15:16:41,077  INFO AbstractQNetsimEngine:365 SIMULATION (QNetsimEngine) AT 11:00:00 : #links=0 #nodes=0
2021-12-26T15:16:41,078  INFO QSim:542 SIMULATION (NEW QSim) AT 11:00:00 : #Veh=1 lost=0 simT=18090.0s realT=2s; (s/r): 9045.0
2021-12-26T15:16:41,296  INFO AbstractQNetsimEngine:365 SIMULATION (QNetsimEngine) AT 12:00:00 : #links=0 #nodes=0
2021-12-26T15:16:41,297  INFO QSim:542 SIMULATION (NEW QSim) AT 12:00:00 : #Veh=1 lost=0 simT=21690.0s realT=2s; (s/r): 10845.0
2021-12-26T15:16:41,514  INFO AbstractQNetsimEngine:365 SIMULATION (QNetsimEngine) AT 13:00:00 : #links=1 #nodes=0
2021-12-26T15:16:41,514  INFO QSim:542 SIMULATION (NEW QSim) AT 13:00:00 : #Veh=1 lost=0 simT=25290.0s realT=2s; (s/r): 12645.0
2021-12-26T15:16:41,624  INFO AbstractController$9:234 ### ITERATION 0 fires after mobsim event
2021-12-26T15:16:41,624  INFO ControlerListenerManagerImpl:248 calling notifyAfterMobsim on org.matsim.analysis.LegTimesControlerListener
2021-12-26T15:16:41,627  INFO Gbl:191 Thread performance: Thread=class org.matsim.core.events.SimStepParallelEventsManagerImpl$ProcessEventsRunnable0  cpu-time=0.625sec
2021-12-26T15:16:41,634  INFO LegTimesControlerListener:50 [0] average trip (probably: leg) duration is: 1695 seconds = 00:28:15
2021-12-26T15:16:41,634  INFO ControlerListenerManagerImpl:248 calling notifyAfterMobsim on org.matsim.core.events.MobsimScopeEventHandling
2021-12-26T15:16:41,637  INFO ControlerListenerManagerImpl:248 calling notifyAfterMobsim on org.matsim.core.scoring.EventsToActivities$1
2021-12-26T15:16:41,639  INFO ControlerListenerManagerImpl:251 [it.0] all ControlerAfterMobsimListeners called.
2021-12-26T15:16:41,640  INFO AbstractController$4:159 ### ITERATION 0 fires scoring event
2021-12-26T15:16:41,641  INFO ControlerListenerManagerImpl:183 calling notifyScoring on org.matsim.core.scoring.PlansScoringImpl
2021-12-26T15:16:41,647  INFO NewScoreAssignerImpl:57 it: 0 msaStart: null
2021-12-26T15:16:41,648  INFO ControlerListenerManagerImpl:194 [it.0] all ControlerScoringListeners called.
2021-12-26T15:16:41,650  INFO AbstractController$5:167 ### ITERATION 0 fires iteration end event
2021-12-26T15:16:41,650  INFO ControlerListenerManagerImpl:160 calling notifyIterationEnds on org.matsim.core.controler.corelisteners.EventsHandlingImpl
2021-12-26T15:16:41,653  INFO EventsManagerImpl:181 removing Event-Handler: org.matsim.core.events.algorithms.EventWriterXML
2021-12-26T15:16:41,654  INFO EventsManagerImpl:181 removing Event-Handler: org.matsim.core.events.algorithms.EventWriterXML
2021-12-26T15:16:41,654  INFO ControlerListenerManagerImpl:160 calling notifyIterationEnds on org.matsim.core.scoring.PlansScoringImpl
2021-12-26T15:16:41,654  INFO ControlerListenerManagerImpl:167 calling notifyIterationEnds on org.matsim.counts.CountsControlerListener
2021-12-26T15:16:41,655  INFO ControlerListenerManagerImpl:167 calling notifyIterationEnds on org.matsim.analysis.ModeStatsControlerListener
2021-12-26T15:16:41,656  INFO ModeStatsControlerListener:130 Mode shares over all 201.0 trips found. MainModeIdentifier: class org.matsim.core.router.RoutingModeMainModeIdentifier
2021-12-26T15:16:41,657  INFO ModeStatsControlerListener:137 -- mode share of mode car = 1.0
2021-12-26T15:16:41,659  INFO ControlerListenerManagerImpl:167 calling notifyIterationEnds on org.matsim.analysis.ScoreStatsControlerListener
2021-12-26T15:16:41,660  INFO ScoreStatsControlerListener:181 -- avg. score of the executed plan of each agent: 64.75686659291274
2021-12-26T15:16:41,661  INFO ScoreStatsControlerListener:182 -- avg. score of the worst plan of each agent: 64.75686659291274
2021-12-26T15:16:41,661  INFO ScoreStatsControlerListener:183 -- avg. of the avg. plan score per agent: 64.75686659291274
2021-12-26T15:16:41,661  INFO ScoreStatsControlerListener:184 -- avg. score of the best plan of each agent: 64.75686659291274
2021-12-26T15:16:41,670  INFO ControlerListenerManagerImpl:167 calling notifyIterationEnds on org.matsim.analysis.IterationTravelStatsControlerListener
2021-12-26T15:16:41,697  INFO TravelDistanceStats:143 -- average leg distance per plan (executed plans only): 44776.119402985074 meters
2021-12-26T15:16:41,697  INFO TravelDistanceStats:144 average leg distance per Person (executed plans only): 90000.0 meters (statistic on all 201 legs which have a finite distance)
2021-12-26T15:16:41,698  INFO TravelDistanceStats:145 -- average trip distance per plan (executed plans only): 44776.119402985074 meters
2021-12-26T15:16:41,698  INFO TravelDistanceStats:146 average trip distance per Person (executed plans only): 90000.0 meters (statistic on all 201 trips which have a finite distance)
2021-12-26T15:16:41,698  INFO TravelDistanceStats:147 (TravelDistanceStats takes an average over all legs where the simulation reports travelled (network) distances
2021-12-26T15:16:41,698  INFO TravelDistanceStats:148 (and teleported legs whose route contains a distance.)
2021-12-26T15:16:42,964  INFO ControlerListenerManagerImpl:167 calling notifyIterationEnds on org.matsim.analysis.LegHistogramListener
2021-12-26T15:16:42,993  INFO LegHistogramListener:72 number of legs:	201	100%
2021-12-26T15:16:42,996  INFO LegHistogramListener:79 number of car legs:	201	100.0%
2021-12-26T15:16:43,669  INFO ControlerListenerManagerImpl:167 calling notifyIterationEnds on org.matsim.analysis.LinkStatsControlerListener
2021-12-26T15:16:43,671  INFO ControlerListenerManagerImpl:171 [it.0] all ControlerIterationEndsListeners called.
2021-12-26T15:16:44,001  INFO AbstractController:181 ### ITERATION 0 ENDS
2021-12-26T15:16:44,001  INFO AbstractController:182 ###################################################
2021-12-26T15:16:44,001  INFO AbstractController:133 ###################################################
2021-12-26T15:16:44,001  INFO AbstractController:134 ### ITERATION 1 BEGINS
2021-12-26T15:16:44,002  INFO ControlerListenerManagerImpl:145 calling notifyIterationStarts on org.matsim.analysis.LegHistogramListener
2021-12-26T15:16:44,003  INFO ControlerListenerManagerImpl:145 calling notifyIterationStarts on org.matsim.analysis.LinkStatsControlerListener
2021-12-26T15:16:44,003  INFO ControlerListenerManagerImpl:145 calling notifyIterationStarts on org.matsim.core.replanning.ReplanningContextImpl
2021-12-26T15:16:44,003  INFO ControlerListenerManagerImpl:145 calling notifyIterationStarts on org.matsim.core.scoring.ScoringFunctionsForPopulation$1
2021-12-26T15:16:44,006  INFO ControlerListenerManagerImpl:145 calling notifyIterationStarts on org.matsim.core.scoring.ExperiencedPlansServiceImpl$1
2021-12-26T15:16:44,007  INFO ControlerListenerManagerImpl:148 [it.1] all ControlerIterationStartsListeners called.
2021-12-26T15:16:44,008  INFO ControlerListenerManagerImpl:205 calling notifyReplanning on org.matsim.core.controler.corelisteners.PlansReplanningImpl
2021-12-26T15:16:44,009  INFO RandomizingTimeDistanceTravelDisutilityFactory:85  sigma: 3.0; resulting normalization: 0.011108996538242306
2021-12-26T15:16:44,013  INFO RandomizingTimeDistanceTravelDisutilityFactory:85  sigma: 3.0; resulting normalization: 0.011108996538242306
2021-12-26T15:16:44,027  INFO GenericPlanStrategyImpl:125 Plan-Strategy finished, 89 plans handled. Strategy: BestPlanSelector
2021-12-26T15:16:44,027  INFO AbstractMultithreadedModule:141 [PlanRouter] starting 2 threads, handling 11 plans
2021-12-26T15:16:44,041  INFO Counter:69 [PlanRouter] handled plan # 1
2021-12-26T15:16:44,041  INFO Counter:69 [PlanRouter] handled plan # 2
2021-12-26T15:16:44,043  INFO Counter:69 [PlanRouter] handled plan # 4
2021-12-26T15:16:44,045  INFO Counter:69 [PlanRouter] handled plan # 8
2021-12-26T15:16:44,047  INFO AbstractMultithreadedModule:156 [PlanRouter] all 2 threads finished.
2021-12-26T15:16:44,047  INFO GenericPlanStrategyImpl:125 Plan-Strategy finished, 11 plans handled. Strategy: RandomPlanSelector_ReRoute
2021-12-26T15:16:44,048  INFO ControlerListenerManagerImpl:213 [it.1] all ControlerReplanningListeners called.
2021-12-26T15:16:44,048  INFO ControlerListenerManagerImpl:224 calling notifyBeforeMobsim on org.matsim.core.controler.corelisteners.EventsHandlingImpl
2021-12-26T15:16:44,048  INFO EventsManagerImpl:190 resetting Event-Handlers
2021-12-26T15:16:44,048  INFO EventsManagerImpl:197   org.matsim.core.trafficmonitoring.TravelTimeCalculator
2021-12-26T15:16:44,049  INFO EventsManagerImpl:197   org.matsim.core.scoring.EventsToLegsAndActivities
2021-12-26T15:16:44,049  INFO EventsManagerImpl:197   org.matsim.analysis.VolumesAnalyzer
2021-12-26T15:16:44,049  INFO EventsManagerImpl:197   org.matsim.core.scoring.ScoringFunctionsForPopulation
2021-12-26T15:16:44,049  INFO EventsManagerImpl:197   org.matsim.analysis.LegHistogram
2021-12-26T15:16:44,050  INFO EventsManagerImpl:197   org.matsim.analysis.CalcLegTimes
2021-12-26T15:16:44,050  INFO ControlerListenerManagerImpl:224 calling notifyBeforeMobsim on org.matsim.core.controler.corelisteners.PlansDumpingImpl
2021-12-26T15:16:44,050  INFO PlansDumpingImpl:76 dumping plans...
2021-12-26T15:16:44,053  INFO Counter:69 [PopulationWriter] dumped person # 1
2021-12-26T15:16:44,054  INFO Counter:69 [PopulationWriter] dumped person # 2
2021-12-26T15:16:44,057  INFO Counter:69 [PopulationWriter] dumped person # 4
2021-12-26T15:16:44,058  INFO Counter:69 [PopulationWriter] dumped person # 8
2021-12-26T15:16:44,060  INFO Counter:69 [PopulationWriter] dumped person # 16
2021-12-26T15:16:44,064  INFO Counter:69 [PopulationWriter] dumped person # 32
2021-12-26T15:16:44,074  INFO Counter:69 [PopulationWriter] dumped person # 64
2021-12-26T15:16:44,083  INFO PopulationWriter:144 Population written to: ./output/ITERS/it.1/1.plans.xml.gz
2021-12-26T15:16:44,085  INFO Counter:74 [PopulationWriter] dumped person # 100
2021-12-26T15:16:44,085  INFO PlansDumpingImpl:93 finished plans dump.
2021-12-26T15:16:44,085  INFO ControlerListenerManagerImpl:229 calling notifyBeforeMobsim on org.matsim.core.population.VspPlansCleaner
2021-12-26T15:16:44,086  INFO ControlerListenerManagerImpl:232 [it.1] all ControlerBeforeMobsimListeners called.
2021-12-26T15:16:44,087  INFO RandomizingTimeDistanceTravelDisutilityFactory:85  sigma: 3.0; resulting normalization: 0.011108996538242306
2021-12-26T15:16:44,089  INFO RandomizingTimeDistanceTravelDisutilityFactory:85  sigma: 3.0; resulting normalization: 0.011108996538242306
2021-12-26T15:16:44,090  INFO Counter:69 [PersonPrepareForSim] handled person # 1
2021-12-26T15:16:44,090  INFO Counter:69 [PersonPrepareForSim] handled person # 2
2021-12-26T15:16:44,091  INFO Counter:69 [PersonPrepareForSim] handled person # 4
2021-12-26T15:16:44,091  INFO Counter:69 [PersonPrepareForSim] handled person # 8
2021-12-26T15:16:44,091  INFO Counter:69 [PersonPrepareForSim] handled person # 16
2021-12-26T15:16:44,091  INFO Counter:69 [PersonPrepareForSim] handled person # 32
2021-12-26T15:16:44,091  INFO Counter:69 [PersonPrepareForSim] handled person # 64
2021-12-26T15:16:44,092  INFO Counter:74 [PersonPrepareForSim] handled person # 100
2021-12-26T15:16:44,127  INFO MobsimListenerManager:49 calling addQueueSimulationListener
2021-12-26T15:16:44,127  INFO MobsimListenerManager:53   assigned class org.matsim.core.mobsim.framework.listeners.MobsimListener to interface org.matsim.core.mobsim.framework.listeners.MobsimListener
2021-12-26T15:16:44,128  INFO MobsimListenerManager:53   assigned class org.matsim.core.mobsim.framework.listeners.MobsimListener to interface org.matsim.core.mobsim.framework.listeners.MobsimInitializedListener
2021-12-26T15:16:44,128  INFO MobsimListenerManager:53   assigned class org.matsim.core.mobsim.framework.listeners.MobsimListener to interface org.matsim.vis.snapshotwriters.SnapshotWriterManager
2021-12-26T15:16:44,128  INFO MobsimListenerManager:53   assigned class org.matsim.core.mobsim.framework.listeners.MobsimListener to interface org.matsim.core.mobsim.framework.listeners.MobsimAfterSimStepListener
2021-12-26T15:16:44,128  INFO MobsimListenerManager:53   assigned class org.matsim.core.mobsim.framework.listeners.MobsimListener to interface org.matsim.core.mobsim.framework.listeners.MobsimBeforeCleanupListener
2021-12-26T15:16:44,130  WARN QueueWithBuffer:494 Link 1 too small: enlarge storage capacity from: 1333.3333333333333 Vehicles to: 3599.712023038157 Vehicles.  This is not fatal, but modifies the traffic flow dynamics.
2021-12-26T15:16:44,131  WARN QueueWithBuffer:494 Link 20 too small: enlarge storage capacity from: 1333.3333333333333 Vehicles to: 3599.712023038157 Vehicles.  This is not fatal, but modifies the traffic flow dynamics.
2021-12-26T15:16:44,131  WARN QueueWithBuffer:494 Link 21 too small: enlarge storage capacity from: 1333.3333333333333 Vehicles to: 3599.712023038157 Vehicles.  This is not fatal, but modifies the traffic flow dynamics.
2021-12-26T15:16:44,131  WARN QueueWithBuffer:494 Link 22 too small: enlarge storage capacity from: 4666.666666666667 Vehicles to: 12598.99208063355 Vehicles.  This is not fatal, but modifies the traffic flow dynamics.
2021-12-26T15:16:44,132  WARN QueueWithBuffer:494 Link 23 too small: enlarge storage capacity from: 1333.3333333333333 Vehicles to: 3599.712023038157 Vehicles.  This is not fatal, but modifies the traffic flow dynamics.
2021-12-26T15:16:44,134  INFO QSimProvider:115 Added MobsimEngine class org.matsim.core.mobsim.qsim.ActivityEngineDefaultImpl
2021-12-26T15:16:44,134  INFO QSimProvider:121 Added Activityhandler class org.matsim.core.mobsim.qsim.ActivityEngineDefaultImpl
2021-12-26T15:16:44,134  INFO QSimProvider:127 Added DepartureHandler class org.matsim.core.mobsim.qsim.qnetsimengine.VehicularDepartureHandler
2021-12-26T15:16:44,134  INFO QSimProvider:115 Added MobsimEngine class org.matsim.core.mobsim.qsim.qnetsimengine.QNetsimEngineWithThreadpool
2021-12-26T15:16:44,134  INFO QSimProvider:115 Added MobsimEngine class org.matsim.core.mobsim.qsim.DefaultTeleportationEngine
2021-12-26T15:16:44,135  INFO QSimProvider:127 Added DepartureHandler class org.matsim.core.mobsim.qsim.DefaultTeleportationEngine
2021-12-26T15:16:44,135  INFO QSimProvider:133 Added AgentSource class org.matsim.core.mobsim.qsim.agents.PopulationAgentSource
2021-12-26T15:16:44,135  INFO MobsimListenerManager:49 calling addQueueSimulationListener
2021-12-26T15:16:44,135  INFO MobsimListenerManager:53   assigned class org.matsim.core.mobsim.framework.listeners.MobsimListener to interface org.matsim.core.mobsim.qsim.messagequeueengine.MessageQueueEngine
2021-12-26T15:16:44,135  INFO MobsimListenerManager:53   assigned class org.matsim.core.mobsim.framework.listeners.MobsimListener to interface org.matsim.core.mobsim.framework.listeners.MobsimListener
2021-12-26T15:16:44,135  INFO MobsimListenerManager:53   assigned class org.matsim.core.mobsim.framework.listeners.MobsimListener to interface org.matsim.core.mobsim.framework.listeners.MobsimBeforeSimStepListener
2021-12-26T15:16:44,136  INFO QSimProvider:139 Added MobsimListener class org.matsim.core.mobsim.qsim.messagequeueengine.MessageQueueEngine
2021-12-26T15:16:44,140  INFO AbstractQNetsimEngine:427 Assigned 15 nodes and 23 links to QSimEngineRunner #0
2021-12-26T15:16:44,144  INFO AbstractQNetsimEngine:365 SIMULATION (QNetsimEngine) AT 05:58:30 : #links=0 #nodes=1
2021-12-26T15:16:44,144  INFO QSim:542 SIMULATION (NEW QSim) AT 05:58:30 : #Veh=100 lost=0 simT=0.0s realT=0s; (s/r): 0.0
2021-12-26T15:16:44,159  INFO AbstractQNetsimEngine:365 SIMULATION (QNetsimEngine) AT 06:00:00 : #links=2 #nodes=1
2021-12-26T15:16:44,159  INFO QSim:542 SIMULATION (NEW QSim) AT 06:00:00 : #Veh=100 lost=0 simT=90.0s realT=0s; (s/r): Infinity
2021-12-26T15:16:44,257  INFO EventsManagerImpl:137  event # 4096
2021-12-26T15:16:44,481  INFO AbstractQNetsimEngine:365 SIMULATION (QNetsimEngine) AT 07:00:00 : #links=1 #nodes=0
2021-12-26T15:16:44,481  INFO QSim:542 SIMULATION (NEW QSim) AT 07:00:00 : #Veh=100 lost=0 simT=3690.0s realT=0s; (s/r): Infinity
2021-12-26T15:16:44,734  INFO AbstractQNetsimEngine:365 SIMULATION (QNetsimEngine) AT 08:00:00 : #links=1 #nodes=0
2021-12-26T15:16:44,735  INFO QSim:542 SIMULATION (NEW QSim) AT 08:00:00 : #Veh=5 lost=0 simT=7290.0s realT=0s; (s/r): Infinity
2021-12-26T15:16:44,966  INFO AbstractQNetsimEngine:365 SIMULATION (QNetsimEngine) AT 09:00:00 : #links=1 #nodes=0
2021-12-26T15:16:44,967  INFO QSim:542 SIMULATION (NEW QSim) AT 09:00:00 : #Veh=4 lost=0 simT=10890.0s realT=0s; (s/r): Infinity
2021-12-26T15:16:45,206  INFO AbstractQNetsimEngine:365 SIMULATION (QNetsimEngine) AT 10:00:00 : #links=0 #nodes=0
2021-12-26T15:16:45,206  INFO QSim:542 SIMULATION (NEW QSim) AT 10:00:00 : #Veh=2 lost=0 simT=14490.0s realT=1s; (s/r): 14490.0
2021-12-26T15:16:45,448  INFO AbstractQNetsimEngine:365 SIMULATION (QNetsimEngine) AT 11:00:00 : #links=0 #nodes=0
2021-12-26T15:16:45,448  INFO QSim:542 SIMULATION (NEW QSim) AT 11:00:00 : #Veh=1 lost=0 simT=18090.0s realT=1s; (s/r): 18090.0
2021-12-26T15:16:45,686  INFO AbstractQNetsimEngine:365 SIMULATION (QNetsimEngine) AT 12:00:00 : #links=0 #nodes=0
2021-12-26T15:16:45,686  INFO QSim:542 SIMULATION (NEW QSim) AT 12:00:00 : #Veh=1 lost=0 simT=21690.0s realT=1s; (s/r): 21690.0
[...]
2021-12-26T15:17:09,226  INFO EventsManagerImpl:166   org.matsim.core.events.handler.BasicEventHandler
2021-12-26T15:17:09,227  INFO EventsManagerImpl:227     > org.matsim.api.core.v01.events.Event
2021-12-26T15:17:09,227  INFO EventsManagerImpl:176 
2021-12-26T15:17:09,227  INFO EventsManagerImpl:160 adding Event-Handler: org.matsim.core.events.algorithms.EventWriterXML
2021-12-26T15:17:09,227  INFO EventsManagerImpl:166   org.matsim.core.events.algorithms.EventWriter
2021-12-26T15:17:09,227  INFO EventsManagerImpl:166   org.matsim.core.events.handler.BasicEventHandler
2021-12-26T15:17:09,227  INFO EventsManagerImpl:227     > org.matsim.api.core.v01.events.Event
2021-12-26T15:17:09,228  INFO EventsManagerImpl:176 
2021-12-26T15:17:09,228  INFO ControlerListenerManagerImpl:224 calling notifyBeforeMobsim on org.matsim.core.controler.corelisteners.PlansDumpingImpl
2021-12-26T15:17:09,228  INFO PlansDumpingImpl:76 dumping plans...
2021-12-26T15:17:09,231  INFO Counter:69 [PopulationWriter] dumped person # 1
2021-12-26T15:17:09,232  INFO Counter:69 [PopulationWriter] dumped person # 2
2021-12-26T15:17:09,232  INFO Counter:69 [PopulationWriter] dumped person # 4
2021-12-26T15:17:09,233  INFO Counter:69 [PopulationWriter] dumped person # 8
2021-12-26T15:17:09,235  INFO Counter:69 [PopulationWriter] dumped person # 16
2021-12-26T15:17:09,238  INFO Counter:69 [PopulationWriter] dumped person # 32
2021-12-26T15:17:09,245  INFO Counter:69 [PopulationWriter] dumped person # 64
2021-12-26T15:17:09,250  INFO PopulationWriter:144 Population written to: ./output/ITERS/it.10/10.plans.xml.gz
2021-12-26T15:17:09,252  INFO Counter:74 [PopulationWriter] dumped person # 100
2021-12-26T15:17:09,252  INFO PlansDumpingImpl:93 finished plans dump.
2021-12-26T15:17:09,252  INFO ControlerListenerManagerImpl:229 calling notifyBeforeMobsim on org.matsim.core.population.VspPlansCleaner
2021-12-26T15:17:09,252  INFO ControlerListenerManagerImpl:232 [it.10] all ControlerBeforeMobsimListeners called.
2021-12-26T15:17:09,254  INFO Counter:69 [PersonPrepareForSim] handled person # 2
2021-12-26T15:17:09,254  INFO Counter:69 [PersonPrepareForSim] handled person # 1
2021-12-26T15:17:09,256  INFO Counter:69 [PersonPrepareForSim] handled person # 4
2021-12-26T15:17:09,256  INFO Counter:69 [PersonPrepareForSim] handled person # 8
2021-12-26T15:17:09,256  INFO Counter:69 [PersonPrepareForSim] handled person # 16
2021-12-26T15:17:09,256  INFO Counter:69 [PersonPrepareForSim] handled person # 32
2021-12-26T15:17:09,257  INFO Counter:69 [PersonPrepareForSim] handled person # 64
2021-12-26T15:17:09,257  INFO Counter:74 [PersonPrepareForSim] handled person # 100
2021-12-26T15:17:09,269  INFO MobsimListenerManager:49 calling addQueueSimulationListener
2021-12-26T15:17:09,269  INFO MobsimListenerManager:53   assigned class org.matsim.core.mobsim.framework.listeners.MobsimListener to interface org.matsim.core.mobsim.framework.listeners.MobsimListener
2021-12-26T15:17:09,269  INFO MobsimListenerManager:53   assigned class org.matsim.core.mobsim.framework.listeners.MobsimListener to interface org.matsim.core.mobsim.framework.listeners.MobsimInitializedListener
2021-12-26T15:17:09,269  INFO MobsimListenerManager:53   assigned class org.matsim.core.mobsim.framework.listeners.MobsimListener to interface org.matsim.vis.snapshotwriters.SnapshotWriterManager
2021-12-26T15:17:09,269  INFO MobsimListenerManager:53   assigned class org.matsim.core.mobsim.framework.listeners.MobsimListener to interface org.matsim.core.mobsim.framework.listeners.MobsimAfterSimStepListener
2021-12-26T15:17:09,270  INFO MobsimListenerManager:53   assigned class org.matsim.core.mobsim.framework.listeners.MobsimListener to interface org.matsim.core.mobsim.framework.listeners.MobsimBeforeCleanupListener
2021-12-26T15:17:09,273  INFO QSimProvider:115 Added MobsimEngine class org.matsim.core.mobsim.qsim.ActivityEngineDefaultImpl
2021-12-26T15:17:09,273  INFO QSimProvider:121 Added Activityhandler class org.matsim.core.mobsim.qsim.ActivityEngineDefaultImpl
2021-12-26T15:17:09,273  INFO QSimProvider:127 Added DepartureHandler class org.matsim.core.mobsim.qsim.qnetsimengine.VehicularDepartureHandler
2021-12-26T15:17:09,273  INFO QSimProvider:115 Added MobsimEngine class org.matsim.core.mobsim.qsim.qnetsimengine.QNetsimEngineWithThreadpool
2021-12-26T15:17:09,273  INFO QSimProvider:115 Added MobsimEngine class org.matsim.core.mobsim.qsim.DefaultTeleportationEngine
2021-12-26T15:17:09,274  INFO QSimProvider:127 Added DepartureHandler class org.matsim.core.mobsim.qsim.DefaultTeleportationEngine
2021-12-26T15:17:09,274  INFO QSimProvider:133 Added AgentSource class org.matsim.core.mobsim.qsim.agents.PopulationAgentSource
2021-12-26T15:17:09,274  INFO MobsimListenerManager:49 calling addQueueSimulationListener
2021-12-26T15:17:09,274  INFO MobsimListenerManager:53   assigned class org.matsim.core.mobsim.framework.listeners.MobsimListener to interface org.matsim.core.mobsim.qsim.messagequeueengine.MessageQueueEngine
2021-12-26T15:17:09,274  INFO MobsimListenerManager:53   assigned class org.matsim.core.mobsim.framework.listeners.MobsimListener to interface org.matsim.core.mobsim.framework.listeners.MobsimListener
2021-12-26T15:17:09,274  INFO MobsimListenerManager:53   assigned class org.matsim.core.mobsim.framework.listeners.MobsimListener to interface org.matsim.core.mobsim.framework.listeners.MobsimBeforeSimStepListener
2021-12-26T15:17:09,274  INFO QSimProvider:139 Added MobsimListener class org.matsim.core.mobsim.qsim.messagequeueengine.MessageQueueEngine
2021-12-26T15:17:09,277  INFO AbstractQNetsimEngine:427 Assigned 15 nodes and 23 links to QSimEngineRunner #0
2021-12-26T15:17:09,278  INFO AbstractQNetsimEngine:365 SIMULATION (QNetsimEngine) AT 05:58:30 : #links=0 #nodes=1
2021-12-26T15:17:09,278  INFO QSim:542 SIMULATION (NEW QSim) AT 05:58:30 : #Veh=100 lost=0 simT=0.0s realT=0s; (s/r): 0.0
2021-12-26T15:17:09,288  INFO AbstractQNetsimEngine:365 SIMULATION (QNetsimEngine) AT 06:00:00 : #links=2 #nodes=1
2021-12-26T15:17:09,289  INFO QSim:542 SIMULATION (NEW QSim) AT 06:00:00 : #Veh=100 lost=0 simT=90.0s realT=0s; (s/r): Infinity
2021-12-26T15:17:09,610  INFO AbstractQNetsimEngine:365 SIMULATION (QNetsimEngine) AT 07:00:00 : #links=1 #nodes=0
2021-12-26T15:17:09,610  INFO QSim:542 SIMULATION (NEW QSim) AT 07:00:00 : #Veh=100 lost=0 simT=3690.0s realT=0s; (s/r): Infinity
2021-12-26T15:17:09,874  INFO AbstractQNetsimEngine:365 SIMULATION (QNetsimEngine) AT 08:00:00 : #links=1 #nodes=0
2021-12-26T15:17:09,874  INFO QSim:542 SIMULATION (NEW QSim) AT 08:00:00 : #Veh=5 lost=0 simT=7290.0s realT=0s; (s/r): Infinity
2021-12-26T15:17:10,078  INFO AbstractQNetsimEngine:365 SIMULATION (QNetsimEngine) AT 09:00:00 : #links=1 #nodes=0
2021-12-26T15:17:10,079  INFO QSim:542 SIMULATION (NEW QSim) AT 09:00:00 : #Veh=4 lost=0 simT=10890.0s realT=0s; (s/r): Infinity
2021-12-26T15:17:10,295  INFO AbstractQNetsimEngine:365 SIMULATION (QNetsimEngine) AT 10:00:00 : #links=1 #nodes=0
2021-12-26T15:17:10,295  INFO QSim:542 SIMULATION (NEW QSim) AT 10:00:00 : #Veh=2 lost=0 simT=14490.0s realT=1s; (s/r): 14490.0
2021-12-26T15:17:10,509  INFO AbstractQNetsimEngine:365 SIMULATION (QNetsimEngine) AT 11:00:00 : #links=0 #nodes=0
2021-12-26T15:17:10,509  INFO QSim:542 SIMULATION (NEW QSim) AT 11:00:00 : #Veh=1 lost=0 simT=18090.0s realT=1s; (s/r): 18090.0
2021-12-26T15:17:10,732  INFO AbstractQNetsimEngine:365 SIMULATION (QNetsimEngine) AT 12:00:00 : #links=0 #nodes=0
2021-12-26T15:17:10,732  INFO QSim:542 SIMULATION (NEW QSim) AT 12:00:00 : #Veh=1 lost=0 simT=21690.0s realT=1s; (s/r): 21690.0
2021-12-26T15:17:10,970  INFO AbstractQNetsimEngine:365 SIMULATION (QNetsimEngine) AT 13:00:00 : #links=1 #nodes=0
2021-12-26T15:17:10,971  INFO QSim:542 SIMULATION (NEW QSim) AT 13:00:00 : #Veh=1 lost=0 simT=25290.0s realT=1s; (s/r): 25290.0
2021-12-26T15:17:11,057  INFO AbstractController$9:234 ### ITERATION 10 fires after mobsim event
2021-12-26T15:17:11,057  INFO ControlerListenerManagerImpl:248 calling notifyAfterMobsim on org.matsim.analysis.LegTimesControlerListener
2021-12-26T15:17:11,057  INFO Gbl:191 Thread performance: Thread=class org.matsim.core.events.SimStepParallelEventsManagerImpl$ProcessEventsRunnable0  cpu-time=0.265625sec
2021-12-26T15:17:11,059  INFO LegTimesControlerListener:50 [10] average trip (probably: leg) duration is: 1628 seconds = 00:27:08
2021-12-26T15:17:11,059  INFO ControlerListenerManagerImpl:248 calling notifyAfterMobsim on org.matsim.core.events.MobsimScopeEventHandling
2021-12-26T15:17:11,059  INFO ControlerListenerManagerImpl:248 calling notifyAfterMobsim on org.matsim.core.scoring.EventsToActivities$1
2021-12-26T15:17:11,060  INFO ControlerListenerManagerImpl:251 [it.10] all ControlerAfterMobsimListeners called.
2021-12-26T15:17:11,060  INFO AbstractController$4:159 ### ITERATION 10 fires scoring event
2021-12-26T15:17:11,060  INFO ControlerListenerManagerImpl:183 calling notifyScoring on org.matsim.core.scoring.PlansScoringImpl
2021-12-26T15:17:11,060  INFO NewScoreAssignerImpl:57 it: 10 msaStart: null
2021-12-26T15:17:11,060  INFO ControlerListenerManagerImpl:194 [it.10] all ControlerScoringListeners called.
2021-12-26T15:17:11,061  INFO AbstractController$5:167 ### ITERATION 10 fires iteration end event
2021-12-26T15:17:11,061  INFO ControlerListenerManagerImpl:160 calling notifyIterationEnds on org.matsim.core.controler.corelisteners.EventsHandlingImpl
2021-12-26T15:17:11,066  INFO EventsManagerImpl:181 removing Event-Handler: org.matsim.core.events.algorithms.EventWriterXML
2021-12-26T15:17:11,066  INFO EventsManagerImpl:181 removing Event-Handler: org.matsim.core.events.algorithms.EventWriterXML
2021-12-26T15:17:11,067  INFO ControlerListenerManagerImpl:160 calling notifyIterationEnds on org.matsim.core.scoring.PlansScoringImpl
2021-12-26T15:17:11,067  INFO ControlerListenerManagerImpl:167 calling notifyIterationEnds on org.matsim.counts.CountsControlerListener
2021-12-26T15:17:11,073  INFO CountSimComparisonTableWriter:93 Writing CountsSimComparison to ./output/ITERS/it.10/10.countscompare.txt
2021-12-26T15:17:11,075  INFO CountSimComparisonTableWriter:134 Writing 'average weekday traffic volume' to ./output/ITERS/it.10/10.countscompareAWTV.txt
2021-12-26T15:17:11,077  INFO ControlerListenerManagerImpl:167 calling notifyIterationEnds on org.matsim.analysis.ModeStatsControlerListener
2021-12-26T15:17:11,077  INFO ModeStatsControlerListener:130 Mode shares over all 201.0 trips found. MainModeIdentifier: class org.matsim.core.router.RoutingModeMainModeIdentifier
2021-12-26T15:17:11,077  INFO ModeStatsControlerListener:137 -- mode share of mode car = 1.0
2021-12-26T15:17:11,145  INFO ControlerListenerManagerImpl:167 calling notifyIterationEnds on org.matsim.analysis.ScoreStatsControlerListener
2021-12-26T15:17:11,146  INFO ScoreStatsControlerListener:181 -- avg. score of the executed plan of each agent: 65.0866398879971
2021-12-26T15:17:11,146  INFO ScoreStatsControlerListener:182 -- avg. score of the worst plan of each agent: 64.91592263882357
2021-12-26T15:17:11,146  INFO ScoreStatsControlerListener:183 -- avg. of the avg. plan score per agent: 65.01554492675089
2021-12-26T15:17:11,146  INFO ScoreStatsControlerListener:184 -- avg. score of the best plan of each agent: 65.09045249606102
2021-12-26T15:17:11,213  INFO ControlerListenerManagerImpl:167 calling notifyIterationEnds on org.matsim.analysis.IterationTravelStatsControlerListener
2021-12-26T15:17:11,215  INFO TravelDistanceStats:143 -- average leg distance per plan (executed plans only): 44776.119402985074 meters
2021-12-26T15:17:11,215  INFO TravelDistanceStats:144 average leg distance per Person (executed plans only): 90000.0 meters (statistic on all 201 legs which have a finite distance)
2021-12-26T15:17:11,215  INFO TravelDistanceStats:145 -- average trip distance per plan (executed plans only): 44776.119402985074 meters
2021-12-26T15:17:11,215  INFO TravelDistanceStats:146 average trip distance per Person (executed plans only): 90000.0 meters (statistic on all 201 trips which have a finite distance)
2021-12-26T15:17:11,215  INFO TravelDistanceStats:147 (TravelDistanceStats takes an average over all legs where the simulation reports travelled (network) distances
2021-12-26T15:17:11,215  INFO TravelDistanceStats:148 (and teleported legs whose route contains a distance.)
2021-12-26T15:17:11,658  INFO ControlerListenerManagerImpl:167 calling notifyIterationEnds on org.matsim.analysis.LegHistogramListener
2021-12-26T15:17:11,664  INFO LegHistogramListener:72 number of legs:	201	100%
2021-12-26T15:17:11,664  INFO LegHistogramListener:79 number of car legs:	201	100.0%
2021-12-26T15:17:11,859  INFO ControlerListenerManagerImpl:167 calling notifyIterationEnds on org.matsim.analysis.LinkStatsControlerListener
2021-12-26T15:17:11,867  INFO ControlerListenerManagerImpl:171 [it.10] all ControlerIterationEndsListeners called.
2021-12-26T15:17:12,038  INFO AbstractController:181 ### ITERATION 10 ENDS
2021-12-26T15:17:12,038  INFO AbstractController:182 ###################################################
2021-12-26T15:17:12,039  INFO MatsimRuntimeModifications:79 S H U T D O W N   ---   start shutdown.
2021-12-26T15:17:12,042  INFO ControlerListenerManagerImpl:121 calling notifyShutdown on org.matsim.core.controler.corelisteners.EventsHandlingImpl
2021-12-26T15:17:12,042  INFO ControlerListenerManagerImpl:121 calling notifyShutdown on org.matsim.core.controler.corelisteners.DumpDataAtEndImpl
2021-12-26T15:17:12,049  INFO Counter:69 [PopulationWriter] dumped person # 1
2021-12-26T15:17:12,051  INFO Counter:69 [PopulationWriter] dumped person # 2
2021-12-26T15:17:12,052  INFO Counter:69 [PopulationWriter] dumped person # 4
2021-12-26T15:17:12,053  INFO Counter:69 [PopulationWriter] dumped person # 8
2021-12-26T15:17:12,056  INFO Counter:69 [PopulationWriter] dumped person # 16
2021-12-26T15:17:12,060  INFO Counter:69 [PopulationWriter] dumped person # 32
2021-12-26T15:17:12,065  INFO Counter:69 [PopulationWriter] dumped person # 64
2021-12-26T15:17:12,070  INFO PopulationWriter:144 Population written to: ./output/output_plans.xml.gz
2021-12-26T15:17:12,075  INFO Counter:74 [PopulationWriter] dumped person # 100
2021-12-26T15:17:12,077  INFO NetworkWriter:69 Writing network to file: ./output/output_network.xml.gz...
2021-12-26T15:17:12,087  INFO NetworkWriter:72 done.
2021-12-26T15:17:12,104  INFO Config:572 setting context to [file:/C:/Users/konra/tubCloud/Uni/Bachelorarbeit/MATSim%20example%20project%20Fork/scenarios/equil/]
2021-12-26T15:17:12,120  INFO Config:572 setting context to [file:/C:/Users/konra/tubCloud/Uni/Bachelorarbeit/MATSim%20example%20project%20Fork/scenarios/equil/]
2021-12-26T15:17:12,134  INFO Config:572 setting context to [file:/C:/Users/konra/tubCloud/Uni/Bachelorarbeit/MATSim%20example%20project%20Fork/scenarios/equil/]
2021-12-26T15:17:12,148  INFO Config:572 setting context to [file:/C:/Users/konra/tubCloud/Uni/Bachelorarbeit/MATSim%20example%20project%20Fork/scenarios/equil/]
2021-12-26T15:17:12,169  INFO Config:572 setting context to [file:/C:/Users/konra/tubCloud/Uni/Bachelorarbeit/MATSim%20example%20project%20Fork/scenarios/equil/]
2021-12-26T15:17:12,179  INFO Config:572 setting context to [file:/C:/Users/konra/tubCloud/Uni/Bachelorarbeit/MATSim%20example%20project%20Fork/scenarios/equil/]
2021-12-26T15:17:12,188  INFO Config:572 setting context to [file:/C:/Users/konra/tubCloud/Uni/Bachelorarbeit/MATSim%20example%20project%20Fork/scenarios/equil/]
2021-12-26T15:17:12,197  INFO Config:572 setting context to [file:/C:/Users/konra/tubCloud/Uni/Bachelorarbeit/MATSim%20example%20project%20Fork/scenarios/equil/]
2021-12-26T15:17:12,203  INFO Config:572 setting context to [file:/C:/Users/konra/tubCloud/Uni/Bachelorarbeit/MATSim%20example%20project%20Fork/scenarios/equil/]
2021-12-26T15:17:12,211  INFO Config:572 setting context to [file:/C:/Users/konra/tubCloud/Uni/Bachelorarbeit/MATSim%20example%20project%20Fork/scenarios/equil/]
2021-12-26T15:17:12,218  INFO Config:572 setting context to [file:/C:/Users/konra/tubCloud/Uni/Bachelorarbeit/MATSim%20example%20project%20Fork/scenarios/equil/]
2021-12-26T15:17:12,230  INFO Config:572 setting context to [file:/C:/Users/konra/tubCloud/Uni/Bachelorarbeit/MATSim%20example%20project%20Fork/scenarios/equil/]
2021-12-26T15:17:12,236  INFO Config:572 setting context to [file:/C:/Users/konra/tubCloud/Uni/Bachelorarbeit/MATSim%20example%20project%20Fork/scenarios/equil/]
2021-12-26T15:17:12,258  INFO Config:572 setting context to [file:/C:/Users/konra/tubCloud/Uni/Bachelorarbeit/MATSim%20example%20project%20Fork/scenarios/equil/]
2021-12-26T15:17:12,263  INFO Config:572 setting context to [file:/C:/Users/konra/tubCloud/Uni/Bachelorarbeit/MATSim%20example%20project%20Fork/scenarios/equil/]
2021-12-26T15:17:12,271  INFO Config:572 setting context to [file:/C:/Users/konra/tubCloud/Uni/Bachelorarbeit/MATSim%20example%20project%20Fork/scenarios/equil/]
2021-12-26T15:17:12,277  INFO Config:572 setting context to [file:/C:/Users/konra/tubCloud/Uni/Bachelorarbeit/MATSim%20example%20project%20Fork/scenarios/equil/]
2021-12-26T15:17:12,295  INFO Config:572 setting context to [file:/C:/Users/konra/tubCloud/Uni/Bachelorarbeit/MATSim%20example%20project%20Fork/scenarios/equil/]
2021-12-26T15:17:12,301  INFO Config:572 setting context to [file:/C:/Users/konra/tubCloud/Uni/Bachelorarbeit/MATSim%20example%20project%20Fork/scenarios/equil/]
2021-12-26T15:17:12,311  INFO Config:572 setting context to [file:/C:/Users/konra/tubCloud/Uni/Bachelorarbeit/MATSim%20example%20project%20Fork/scenarios/equil/]
2021-12-26T15:17:12,316  INFO Config:572 setting context to [file:/C:/Users/konra/tubCloud/Uni/Bachelorarbeit/MATSim%20example%20project%20Fork/scenarios/equil/]
2021-12-26T15:17:12,320  INFO Config:572 setting context to [file:/C:/Users/konra/tubCloud/Uni/Bachelorarbeit/MATSim%20example%20project%20Fork/scenarios/equil/]
2021-12-26T15:17:12,327  INFO Config:572 setting context to [file:/C:/Users/konra/tubCloud/Uni/Bachelorarbeit/MATSim%20example%20project%20Fork/scenarios/equil/]
2021-12-26T15:17:12,333  INFO Config:572 setting context to [file:/C:/Users/konra/tubCloud/Uni/Bachelorarbeit/MATSim%20example%20project%20Fork/scenarios/equil/]
2021-12-26T15:17:12,339  INFO Config:572 setting context to [file:/C:/Users/konra/tubCloud/Uni/Bachelorarbeit/MATSim%20example%20project%20Fork/scenarios/equil/]
2021-12-26T15:17:12,356  INFO MatsimVehicleWriter:54 about to write vehicles to: ./output/output_vehicles.xml.gz
2021-12-26T15:17:12,357  INFO VehicleWriterV2:63 about to write vehicles to: ./output/output_vehicles.xml.gz
2021-12-26T15:17:12,369  INFO MatsimVehicleWriter:54 about to write vehicles to: ./output/output_allVehicles.xml.gz
2021-12-26T15:17:12,369  INFO VehicleWriterV2:63 about to write vehicles to: ./output/output_allVehicles.xml.gz
2021-12-26T15:17:12,377  INFO HouseholdsWriterV10:66 about to write  households to: ./output/output_households.xml.gz
2021-12-26T15:17:12,379  INFO Counter:74 [HouseholdsWriter] wrote household # 0
2021-12-26T15:17:12,415  INFO ControlerListenerManagerImpl:126 calling notifyShutdown on org.matsim.analysis.ScoreStatsControlerListener
2021-12-26T15:17:12,415  INFO ControlerListenerManagerImpl:126 calling notifyShutdown on org.matsim.analysis.IterationTravelStatsControlerListener
2021-12-26T15:17:12,416  INFO IterationTravelStatsControlerListener:104 Writing all Person and Attributes to personscsv
2021-12-26T15:17:12,422  INFO IterationTravelStatsControlerListener:148 ...done
2021-12-26T15:17:12,422  INFO ControlerListenerManagerImpl:129 all ControlerShutdownListeners called.
2021-12-26T15:17:12,422  INFO MatsimRuntimeModifications:102 S H U T D O W N   ---   shutdown completed.
2021-12-26T15:17:12,422  INFO OutputDirectoryLogging:170 closing the logfile, i.e. messages sent to the logger after this message are not written to the logfile.
